Row1_000
  -MTS-   08231913523D 0   0.00000     0.00000     0

 36 37  0  0  0  0  0  0  0  0999 V2000
    1.9840   18.2610   -6.3850 O   0  0  0  0  0  0  0  0  0  0  0  0
    2.6270   18.8700   -5.4220 N   0  0  0  0  0  0  0  0  0  0  0  0
    2.0210   19.4170   -4.3820 C   0  0  0  0  0  0  0  0  0  0  0  0
    0.7990   19.3630   -4.2950 O   0  0  0  0  0  0  0  0  0  0  0  0
    2.8220   20.0730   -3.3630 C   0  0  0  0  0  0  0  0  0  0  0  0
    3.6190   21.3290   -3.8220 C   0  0  0  0  0  0  0  0  0  0  0  0
    4.3280   22.0890   -2.6670 C   0  0  0  0  0  0  0  0  0  0  0  0
    4.2490   23.6270   -2.8630 C   0  0  0  0  0  0  0  0  0  0  0  0
    5.0940   24.4420   -1.8540 C   0  0  0  0  0  0  0  0  0  0  0  0
    4.4240   24.5430   -0.5750 N   0  0  0  0  0  0  0  0  0  0  0  0
    4.8280   23.9730    0.5570 C   0  0  0  0  0  0  0  0  0  0  0  0
    5.8230   23.2780    0.7070 O   0  0  0  0  0  0  0  0  0  0  0  0
    3.9430   24.2720    1.5520 C   0  0  0  0  0  0  0  0  0  0  0  0
    3.9000   23.9480    2.9230 C   0  0  0  0  0  0  0  0  0  0  0  0
    2.8280   24.4390    3.7000 C   0  0  0  0  0  0  0  0  0  0  0  0
    1.8190   25.2330    3.1090 C   0  0  0  0  0  0  0  0  0  0  0  0
    1.8690   25.5460    1.7330 C   0  0  0  0  0  0  0  0  0  0  0  0
    2.9470   25.0560    0.9670 C   0  0  0  0  0  0  0  0  0  0  0  0
    3.2840   25.1890   -0.3470 C   0  0  0  0  0  0  0  0  0  0  0  0
    2.6180   25.8010   -1.1710 O   0  0  0  0  0  0  0  0  0  0  0  0
    2.2350   17.3180   -6.2900 H   0  0  0  0  0  0  0  0  0  0  0  0
    3.5980   18.9200   -5.4790 H   0  0  0  0  0  0  0  0  0  0  0  0
    2.1520   20.3660   -2.5480 H   0  0  0  0  0  0  0  0  0  0  0  0
    3.5310   19.3370   -2.9690 H   0  0  0  0  0  0  0  0  0  0  0  0
    4.3730   21.0130   -4.5480 H   0  0  0  0  0  0  0  0  0  0  0  0
    2.9290   22.0140   -4.3190 H   0  0  0  0  0  0  0  0  0  0  0  0
    3.8570   21.8230   -1.7160 H   0  0  0  0  0  0  0  0  0  0  0  0
    5.3790   21.7850   -2.6250 H   0  0  0  0  0  0  0  0  0  0  0  0
    4.5870   23.8700   -3.8740 H   0  0  0  0  0  0  0  0  0  0  0  0
    3.2050   23.9400   -2.7730 H   0  0  0  0  0  0  0  0  0  0  0  0
    6.0720   23.9630   -1.7320 H   0  0  0  0  0  0  0  0  0  0  0  0
    5.2800   25.4410   -2.2630 H   0  0  0  0  0  0  0  0  0  0  0  0
    4.6310   23.3780    3.3480 H   0  0  0  0  0  0  0  0  0  0  0  0
    2.7840   24.2210    4.7020 H   0  0  0  0  0  0  0  0  0  0  0  0
    1.0470   25.5890    3.6840 H   0  0  0  0  0  0  0  0  0  0  0  0
    1.1450   26.1230    1.3040 H   0  0  0  0  0  0  0  0  0  0  0  0
  1 21  1  0  0  0  0
  1  2  1  0  0  0  0
  2 22  1  0  0  0  0
  2  3  1  0  0  0  0
  3  4  2  0  0  0  0
  3  5  1  0  0  0  0
  5 23  1  0  0  0  0
  5 24  1  0  0  0  0
  5  6  1  0  0  0  0
  6 25  1  0  0  0  0
  6 26  1  0  0  0  0
  6  7  1  0  0  0  0
  7 27  1  0  0  0  0
  7 28  1  0  0  0  0
  7  8  1  0  0  0  0
  8 29  1  0  0  0  0
  8 30  1  0  0  0  0
  8  9  1  0  0  0  0
  9 31  1  0  0  0  0
  9 32  1  0  0  0  0
  9 10  1  0  0  0  0
 10 11  1  0  0  0  0
 11 12  2  0  0  0  0
 11 13  1  0  0  0  0
 13 14  2  0  0  0  0
 14 33  1  0  0  0  0
 14 15  1  0  0  0  0
 15 34  1  0  0  0  0
 15 16  2  0  0  0  0
 16 35  1  0  0  0  0
 16 17  1  0  0  0  0
 17 36  1  0  0  0  0
 17 18  2  0  0  0  0
 18 13  1  0  0  0  0
 18 19  1  0  0  0  0
 19 10  1  0  0  0  0
 19 20  2  0  0  0  0
M  END
>  <EXTREG>  (Row1_000)
Row1_000

>  <Similarity>  (Row1_000)
7.9873

>  <RMSD_ISO>  (Row1_000)
0.0000

>  <STRAIN>  (Row1_000)
0.0000

>  <ID>  (Row1_000)
M001

>  <IC50>  (Row1_000)
103.0000

>  <pIC50>  (Row1_000)
6.9872

$$$$
Row2_000
  -MTS-   08231913523D 0   0.00000     0.00000     0

 39 40  0  0  0  0  0  0  0  0999 V2000
    1.7870   17.7740   -5.9100 O   0  0  0  0  0  0  0  0  0  0  0  0
    2.5030   18.7260   -5.3670 N   0  0  0  0  0  0  0  0  0  0  0  0
    1.9810   19.6500   -4.5810 C   0  0  0  0  0  0  0  0  0  0  0  0
    0.7820   19.6350   -4.3370 O   0  0  0  0  0  0  0  0  0  0  0  0
    2.8570   20.6730   -4.0200 C   0  0  0  0  0  0  0  0  0  0  0  0
    3.6080   20.2870   -2.7160 C   0  0  0  0  0  0  0  0  0  0  0  0
    5.0000   20.9700   -2.5850 C   0  0  0  0  0  0  0  0  0  0  0  0
    4.8620   22.4940   -2.3200 C   0  0  0  0  0  0  0  0  0  0  0  0
    4.4310   22.8460   -0.8740 C   0  0  0  0  0  0  0  0  0  0  0  0
    4.4600   24.3770   -0.6050 C   0  0  0  0  0  0  0  0  0  0  0  0
    3.8270   24.7150    0.6450 N   0  0  0  0  0  0  0  0  0  0  0  0
    4.1670   24.2360    1.8390 C   0  0  0  0  0  0  0  0  0  0  0  0
    5.0700   23.4460    2.0790 O   0  0  0  0  0  0  0  0  0  0  0  0
    3.3190   24.7410    2.7810 C   0  0  0  0  0  0  0  0  0  0  0  0
    3.2170   24.5530    4.1760 C   0  0  0  0  0  0  0  0  0  0  0  0
    2.2010   25.2300    4.8790 C   0  0  0  0  0  0  0  0  0  0  0  0
    1.2950   26.0740    4.1930 C   0  0  0  0  0  0  0  0  0  0  0  0
    1.4010   26.2470    2.7970 C   0  0  0  0  0  0  0  0  0  0  0  0
    2.4280   25.5710    2.1050 C   0  0  0  0  0  0  0  0  0  0  0  0
    2.7830   25.5270    0.7890 C   0  0  0  0  0  0  0  0  0  0  0  0
    2.1950   26.1250   -0.1020 O   0  0  0  0  0  0  0  0  0  0  0  0
    2.0870   16.9520   -5.4640 H   0  0  0  0  0  0  0  0  0  0  0  0
    3.4580   18.7520   -5.5510 H   0  0  0  0  0  0  0  0  0  0  0  0
    3.5990   20.9380   -4.7810 H   0  0  0  0  0  0  0  0  0  0  0  0
    2.2510   21.5630   -3.8190 H   0  0  0  0  0  0  0  0  0  0  0  0
    2.9920   20.5700   -1.8570 H   0  0  0  0  0  0  0  0  0  0  0  0
    3.7430   19.2010   -2.6960 H   0  0  0  0  0  0  0  0  0  0  0  0
    5.5490   20.5050   -1.7620 H   0  0  0  0  0  0  0  0  0  0  0  0
    5.5630   20.8100   -3.5080 H   0  0  0  0  0  0  0  0  0  0  0  0
    5.8240   22.9690   -2.5270 H   0  0  0  0  0  0  0  0  0  0  0  0
    4.1250   22.9000   -3.0170 H   0  0  0  0  0  0  0  0  0  0  0  0
    3.4180   22.4760   -0.7000 H   0  0  0  0  0  0  0  0  0  0  0  0
    5.1010   22.3510   -0.1680 H   0  0  0  0  0  0  0  0  0  0  0  0
    5.4980   24.7210   -0.6030 H   0  0  0  0  0  0  0  0  0  0  0  0
    3.9600   24.8950   -1.4280 H   0  0  0  0  0  0  0  0  0  0  0  0
    3.8700   23.9410    4.6680 H   0  0  0  0  0  0  0  0  0  0  0  0
    2.1170   25.1140    5.8920 H   0  0  0  0  0  0  0  0  0  0  0  0
    0.5630   26.5630    4.7120 H   0  0  0  0  0  0  0  0  0  0  0  0
    0.7480   26.8520    2.2980 H   0  0  0  0  0  0  0  0  0  0  0  0
  1 22  1  0  0  0  0
  1  2  1  0  0  0  0
  2 23  1  0  0  0  0
  2  3  1  0  0  0  0
  3  4  2  0  0  0  0
  3  5  1  0  0  0  0
  5 24  1  0  0  0  0
  5 25  1  0  0  0  0
  5  6  1  0  0  0  0
  6 26  1  0  0  0  0
  6 27  1  0  0  0  0
  6  7  1  0  0  0  0
  7 28  1  0  0  0  0
  7 29  1  0  0  0  0
  7  8  1  0  0  0  0
  8 30  1  0  0  0  0
  8 31  1  0  0  0  0
  8  9  1  0  0  0  0
  9 32  1  0  0  0  0
  9 33  1  0  0  0  0
  9 10  1  0  0  0  0
 10 34  1  0  0  0  0
 10 35  1  0  0  0  0
 10 11  1  0  0  0  0
 11 12  1  0  0  0  0
 12 13  2  0  0  0  0
 12 14  1  0  0  0  0
 14 15  2  0  0  0  0
 15 36  1  0  0  0  0
 15 16  1  0  0  0  0
 16 37  1  0  0  0  0
 16 17  2  0  0  0  0
 17 38  1  0  0  0  0
 17 18  1  0  0  0  0
 18 39  1  0  0  0  0
 18 19  2  0  0  0  0
 19 14  1  0  0  0  0
 19 20  1  0  0  0  0
 20 11  1  0  0  0  0
 20 21  2  0  0  0  0
M  END
>  <EXTREG>  (Row2_000)
Row2_000

>  <Similarity>  (Row2_000)
7.8834

>  <RMSD_ISO>  (Row2_000)
0.0000

>  <STRAIN>  (Row2_000)
0.0000

>  <ID>  (Row2_000)
M002

>  <IC50>  (Row2_000)
71.4000

>  <pIC50>  (Row2_000)
7.1463

$$$$
Row3_000
  -MTS-   08231913523D 0   0.00000     0.00000     0

 31 31  0  0  0  0  0  0  0  0999 V2000
    2.0090   18.4230   -6.1280 O   0  0  0  0  0  0  0  0  0  0  0  0
    2.7200   19.0810   -5.2500 N   0  0  0  0  0  0  0  0  0  0  0  0
    2.1790   19.6910   -4.2110 C   0  0  0  0  0  0  0  0  0  0  0  0
    0.9640   19.6500   -4.0450 O   0  0  0  0  0  0  0  0  0  0  0  0
    3.0530   20.4010   -3.2850 C   0  0  0  0  0  0  0  0  0  0  0  0
    3.4780   21.8290   -3.7220 C   0  0  0  0  0  0  0  0  0  0  0  0
    3.8220   22.7680   -2.5320 C   0  0  0  0  0  0  0  0  0  0  0  0
    2.5660   23.0640   -1.6580 C   0  0  0  0  0  0  0  0  0  0  0  0
    2.5090   24.3640   -0.9750 C   0  0  0  0  0  0  0  0  0  0  0  0
    2.2720   25.3500   -1.6630 O   0  0  0  0  0  0  0  0  0  0  0  0
    2.7080   24.5410    0.4150 C   0  0  0  0  0  0  0  0  0  0  0  0
    3.8610   24.0160    1.0690 C   0  0  0  0  0  0  0  0  0  0  0  0
    4.0670   24.1880    2.4510 C   0  0  0  0  0  0  0  0  0  0  0  0
    3.1270   24.8900    3.2230 C   0  0  0  0  0  0  0  0  0  0  0  0
    1.9800   25.4190    2.6060 C   0  0  0  0  0  0  0  0  0  0  0  0
    1.7750   25.2470    1.2240 C   0  0  0  0  0  0  0  0  0  0  0  0
    2.3470   17.5020   -6.0960 H   0  0  0  0  0  0  0  0  0  0  0  0
    3.6830   19.1240   -5.3660 H   0  0  0  0  0  0  0  0  0  0  0  0
    3.9600   19.8010   -3.1410 H   0  0  0  0  0  0  0  0  0  0  0  0
    2.5420   20.4750   -2.3180 H   0  0  0  0  0  0  0  0  0  0  0  0
    2.6640   22.2760   -4.2980 H   0  0  0  0  0  0  0  0  0  0  0  0
    4.3550   21.7500   -4.3700 H   0  0  0  0  0  0  0  0  0  0  0  0
    4.2210   23.7100   -2.9190 H   0  0  0  0  0  0  0  0  0  0  0  0
    4.5900   22.2990   -1.9120 H   0  0  0  0  0  0  0  0  0  0  0  0
    2.5030   22.2760   -0.8960 H   0  0  0  0  0  0  0  0  0  0  0  0
    1.6860   22.9820   -2.3090 H   0  0  0  0  0  0  0  0  0  0  0  0
    4.5740   23.4970    0.5460 H   0  0  0  0  0  0  0  0  0  0  0  0
    4.9020   23.8020    2.9000 H   0  0  0  0  0  0  0  0  0  0  0  0
    3.2730   25.0170    4.2270 H   0  0  0  0  0  0  0  0  0  0  0  0
    1.2930   25.9300    3.1630 H   0  0  0  0  0  0  0  0  0  0  0  0
    0.9240   25.6510    0.8250 H   0  0  0  0  0  0  0  0  0  0  0  0
  1 17  1  0  0  0  0
  1  2  1  0  0  0  0
  2 18  1  0  0  0  0
  2  3  1  0  0  0  0
  3  4  2  0  0  0  0
  3  5  1  0  0  0  0
  5 19  1  0  0  0  0
  5 20  1  0  0  0  0
  5  6  1  0  0  0  0
  6 21  1  0  0  0  0
  6 22  1  0  0  0  0
  6  7  1  0  0  0  0
  7 23  1  0  0  0  0
  7 24  1  0  0  0  0
  7  8  1  0  0  0  0
  8 25  1  0  0  0  0
  8 26  1  0  0  0  0
  8  9  1  0  0  0  0
  9 10  2  0  0  0  0
  9 11  1  0  0  0  0
 11 12  2  0  0  0  0
 12 27  1  0  0  0  0
 12 13  1  0  0  0  0
 13 28  1  0  0  0  0
 13 14  2  0  0  0  0
 14 29  1  0  0  0  0
 14 15  1  0  0  0  0
 15 30  1  0  0  0  0
 15 16  2  0  0  0  0
 16 11  1  0  0  0  0
 16 31  1  0  0  0  0
M  END
>  <EXTREG>  (Row3_000)
Row3_000

>  <Similarity>  (Row3_000)
7.8784

>  <RMSD_ISO>  (Row3_000)
0.0000

>  <STRAIN>  (Row3_000)
0.0000

>  <ID>  (Row3_000)
M003

>  <IC50>  (Row3_000)
1500.0000

>  <pIC50>  (Row3_000)
5.8239

$$$$
Row4_000
  -MTS-   08231913523D 0   0.00000     0.00000     0

 34 34  0  0  0  0  0  0  0  0999 V2000
    2.1620   18.0310   -6.3110 O   0  0  0  0  0  0  0  0  0  0  0  0
    2.7500   18.7790   -5.4150 N   0  0  0  0  0  0  0  0  0  0  0  0
    2.0830   19.3750   -4.4410 C   0  0  0  0  0  0  0  0  0  0  0  0
    0.8690   19.2280   -4.3650 O   0  0  0  0  0  0  0  0  0  0  0  0
    2.8020   20.1970   -3.4750 C   0  0  0  0  0  0  0  0  0  0  0  0
    3.5560   21.4210   -4.0710 C   0  0  0  0  0  0  0  0  0  0  0  0
    4.7130   21.9400   -3.1820 C   0  0  0  0  0  0  0  0  0  0  0  0
    4.3540   23.2900   -2.5000 C   0  0  0  0  0  0  0  0  0  0  0  0
    3.1070   23.2340   -1.5730 C   0  0  0  0  0  0  0  0  0  0  0  0
    2.7870   24.4630   -0.8290 C   0  0  0  0  0  0  0  0  0  0  0  0
    2.4480   25.4440   -1.4800 O   0  0  0  0  0  0  0  0  0  0  0  0
    2.8490   24.5740    0.5770 C   0  0  0  0  0  0  0  0  0  0  0  0
    3.9690   24.0960    1.3120 C   0  0  0  0  0  0  0  0  0  0  0  0
    4.0390   24.2020    2.7150 C   0  0  0  0  0  0  0  0  0  0  0  0
    2.9850   24.7930    3.4280 C   0  0  0  0  0  0  0  0  0  0  0  0
    1.8630   25.2770    2.7370 C   0  0  0  0  0  0  0  0  0  0  0  0
    1.7990   25.1670    1.3320 C   0  0  0  0  0  0  0  0  0  0  0  0
    2.4680   17.1210   -6.1160 H   0  0  0  0  0  0  0  0  0  0  0  0
    3.7140   18.8970   -5.4750 H   0  0  0  0  0  0  0  0  0  0  0  0
    3.5270   19.5580   -2.9620 H   0  0  0  0  0  0  0  0  0  0  0  0
    2.0810   20.5580   -2.7370 H   0  0  0  0  0  0  0  0  0  0  0  0
    2.8390   22.2330   -4.2250 H   0  0  0  0  0  0  0  0  0  0  0  0
    3.9620   21.1410   -5.0490 H   0  0  0  0  0  0  0  0  0  0  0  0
    5.6060   22.0720   -3.7970 H   0  0  0  0  0  0  0  0  0  0  0  0
    4.9360   21.1960   -2.4140 H   0  0  0  0  0  0  0  0  0  0  0  0
    4.1720   24.0340   -3.2790 H   0  0  0  0  0  0  0  0  0  0  0  0
    5.2110   23.6180   -1.9060 H   0  0  0  0  0  0  0  0  0  0  0  0
    3.2640   22.4270   -0.8460 H   0  0  0  0  0  0  0  0  0  0  0  0
    2.2390   22.9750   -2.1910 H   0  0  0  0  0  0  0  0  0  0  0  0
    4.7590   23.6580    0.8300 H   0  0  0  0  0  0  0  0  0  0  0  0
    4.8590   23.8490    3.2180 H   0  0  0  0  0  0  0  0  0  0  0  0
    3.0340   24.8720    4.4490 H   0  0  0  0  0  0  0  0  0  0  0  0
    1.0930   25.7080    3.2530 H   0  0  0  0  0  0  0  0  0  0  0  0
    0.9670   25.5310    0.8690 H   0  0  0  0  0  0  0  0  0  0  0  0
  1 18  1  0  0  0  0
  1  2  1  0  0  0  0
  2 19  1  0  0  0  0
  2  3  1  0  0  0  0
  3  4  2  0  0  0  0
  3  5  1  0  0  0  0
  5 20  1  0  0  0  0
  5 21  1  0  0  0  0
  5  6  1  0  0  0  0
  6 22  1  0  0  0  0
  6 23  1  0  0  0  0
  6  7  1  0  0  0  0
  7 24  1  0  0  0  0
  7 25  1  0  0  0  0
  7  8  1  0  0  0  0
  8 26  1  0  0  0  0
  8 27  1  0  0  0  0
  8  9  1  0  0  0  0
  9 28  1  0  0  0  0
  9 29  1  0  0  0  0
  9 10  1  0  0  0  0
 10 11  2  0  0  0  0
 10 12  1  0  0  0  0
 12 13  2  0  0  0  0
 13 30  1  0  0  0  0
 13 14  1  0  0  0  0
 14 31  1  0  0  0  0
 14 15  2  0  0  0  0
 15 32  1  0  0  0  0
 15 16  1  0  0  0  0
 16 33  1  0  0  0  0
 16 17  2  0  0  0  0
 17 12  1  0  0  0  0
 17 34  1  0  0  0  0
M  END
>  <EXTREG>  (Row4_000)
Row4_000

>  <Similarity>  (Row4_000)
8.1269

>  <RMSD_ISO>  (Row4_000)
0.0000

>  <STRAIN>  (Row4_000)
0.0000

>  <ID>  (Row4_000)
M004

>  <IC50>  (Row4_000)
500.0000

>  <pIC50>  (Row4_000)
6.3010

$$$$
Row5_000
  -MTS-   08231913523D 0   0.00000     0.00000     0

 37 37  0  0  0  0  0  0  0  0999 V2000
    1.8850   17.7810   -5.9980 O   0  0  0  0  0  0  0  0  0  0  0  0
    2.5260   18.8390   -5.5770 N   0  0  0  0  0  0  0  0  0  0  0  0
    1.9890   19.7040   -4.7340 C   0  0  0  0  0  0  0  0  0  0  0  0
    0.8490   19.5240   -4.3220 O   0  0  0  0  0  0  0  0  0  0  0  0
    2.7720   20.8570   -4.3140 C   0  0  0  0  0  0  0  0  0  0  0  0
    3.9970   20.5520   -3.4070 C   0  0  0  0  0  0  0  0  0  0  0  0
    4.8520   21.8090   -3.0930 C   0  0  0  0  0  0  0  0  0  0  0  0
    4.2270   22.6520   -1.9500 C   0  0  0  0  0  0  0  0  0  0  0  0
    4.7560   24.1080   -1.8960 C   0  0  0  0  0  0  0  0  0  0  0  0
    4.4720   24.7990   -0.5290 C   0  0  0  0  0  0  0  0  0  0  0  0
    3.0620   24.9800   -0.1630 C   0  0  0  0  0  0  0  0  0  0  0  0
    2.2700   25.1810   -1.0760 O   0  0  0  0  0  0  0  0  0  0  0  0
    2.5730   24.9360    1.1610 C   0  0  0  0  0  0  0  0  0  0  0  0
    2.7110   23.7620    1.9580 C   0  0  0  0  0  0  0  0  0  0  0  0
    2.2300   23.7010    3.2790 C   0  0  0  0  0  0  0  0  0  0  0  0
    1.5950   24.8190    3.8420 C   0  0  0  0  0  0  0  0  0  0  0  0
    1.4410   25.9940    3.0870 C   0  0  0  0  0  0  0  0  0  0  0  0
    1.9240   26.0490    1.7650 C   0  0  0  0  0  0  0  0  0  0  0  0
    2.2640   17.0440   -5.4750 H   0  0  0  0  0  0  0  0  0  0  0  0
    3.4320   18.9920   -5.8980 H   0  0  0  0  0  0  0  0  0  0  0  0
    2.1050   21.5380   -3.7780 H   0  0  0  0  0  0  0  0  0  0  0  0
    3.1270   21.3680   -5.2150 H   0  0  0  0  0  0  0  0  0  0  0  0
    4.6270   19.8090   -3.9040 H   0  0  0  0  0  0  0  0  0  0  0  0
    3.6400   20.1220   -2.4660 H   0  0  0  0  0  0  0  0  0  0  0  0
    4.9320   22.4240   -3.9950 H   0  0  0  0  0  0  0  0  0  0  0  0
    5.8600   21.4960   -2.8040 H   0  0  0  0  0  0  0  0  0  0  0  0
    4.4420   22.1630   -0.9970 H   0  0  0  0  0  0  0  0  0  0  0  0
    3.1430   22.6760   -2.0850 H   0  0  0  0  0  0  0  0  0  0  0  0
    4.2830   24.6890   -2.6920 H   0  0  0  0  0  0  0  0  0  0  0  0
    5.8350   24.1020   -2.0720 H   0  0  0  0  0  0  0  0  0  0  0  0
    4.9510   25.7830   -0.5450 H   0  0  0  0  0  0  0  0  0  0  0  0
    4.9560   24.2060    0.2530 H   0  0  0  0  0  0  0  0  0  0  0  0
    3.1680   22.9270    1.5830 H   0  0  0  0  0  0  0  0  0  0  0  0
    2.3430   22.8430    3.8290 H   0  0  0  0  0  0  0  0  0  0  0  0
    1.2430   24.7790    4.8030 H   0  0  0  0  0  0  0  0  0  0  0  0
    0.9770   26.8090    3.4980 H   0  0  0  0  0  0  0  0  0  0  0  0
    1.7920   26.9220    1.2500 H   0  0  0  0  0  0  0  0  0  0  0  0
  1 19  1  0  0  0  0
  1  2  1  0  0  0  0
  2 20  1  0  0  0  0
  2  3  1  0  0  0  0
  3  4  2  0  0  0  0
  3  5  1  0  0  0  0
  5 21  1  0  0  0  0
  5 22  1  0  0  0  0
  5  6  1  0  0  0  0
  6 23  1  0  0  0  0
  6 24  1  0  0  0  0
  6  7  1  0  0  0  0
  7 25  1  0  0  0  0
  7 26  1  0  0  0  0
  7  8  1  0  0  0  0
  8 27  1  0  0  0  0
  8 28  1  0  0  0  0
  8  9  1  0  0  0  0
  9 29  1  0  0  0  0
  9 30  1  0  0  0  0
  9 10  1  0  0  0  0
 10 31  1  0  0  0  0
 10 32  1  0  0  0  0
 10 11  1  0  0  0  0
 11 12  2  0  0  0  0
 11 13  1  0  0  0  0
 13 14  2  0  0  0  0
 14 33  1  0  0  0  0
 14 15  1  0  0  0  0
 15 34  1  0  0  0  0
 15 16  2  0  0  0  0
 16 35  1  0  0  0  0
 16 17  1  0  0  0  0
 17 36  1  0  0  0  0
 17 18  2  0  0  0  0
 18 13  1  0  0  0  0
 18 37  1  0  0  0  0
M  END
>  <EXTREG>  (Row5_000)
Row5_000

>  <Similarity>  (Row5_000)
8.2665

>  <RMSD_ISO>  (Row5_000)
0.0000

>  <STRAIN>  (Row5_000)
0.0000

>  <ID>  (Row5_000)
M005

>  <IC50>  (Row5_000)
65.0000

>  <pIC50>  (Row5_000)
7.1871

$$$$
Row6_000
  -MTS-   08231913523D 0   0.00000     0.00000     0

 40 40  0  0  0  0  0  0  0  0999 V2000
    1.7020   18.0790   -6.4570 O   0  0  0  0  0  0  0  0  0  0  0  0
    2.4130   18.6400   -5.5110 N   0  0  0  0  0  0  0  0  0  0  0  0
    1.8680   19.1490   -4.4210 C   0  0  0  0  0  0  0  0  0  0  0  0
    0.6530   19.1040   -4.2740 O   0  0  0  0  0  0  0  0  0  0  0  0
    2.7260   19.7540   -3.4170 C   0  0  0  0  0  0  0  0  0  0  0  0
    3.0960   21.2460   -3.6660 C   0  0  0  0  0  0  0  0  0  0  0  0
    4.5340   21.6120   -3.2100 C   0  0  0  0  0  0  0  0  0  0  0  0
    4.7230   23.1480   -3.1320 C   0  0  0  0  0  0  0  0  0  0  0  0
    4.3210   23.7630   -1.7660 C   0  0  0  0  0  0  0  0  0  0  0  0
    4.6130   25.2860   -1.7110 C   0  0  0  0  0  0  0  0  0  0  0  0
    4.3630   25.9130   -0.3100 C   0  0  0  0  0  0  0  0  0  0  0  0
    3.0420   25.7010    0.2910 C   0  0  0  0  0  0  0  0  0  0  0  0
    2.0620   25.8040   -0.4400 O   0  0  0  0  0  0  0  0  0  0  0  0
    2.8450   25.3880    1.6580 C   0  0  0  0  0  0  0  0  0  0  0  0
    3.6090   24.3740    2.3000 C   0  0  0  0  0  0  0  0  0  0  0  0
    3.4160   24.0580    3.6610 C   0  0  0  0  0  0  0  0  0  0  0  0
    2.4540   24.7480    4.4180 C   0  0  0  0  0  0  0  0  0  0  0  0
    1.6880   25.7520    3.8090 C   0  0  0  0  0  0  0  0  0  0  0  0
    1.8810   26.0670    2.4510 C   0  0  0  0  0  0  0  0  0  0  0  0
    2.0220   17.1540   -6.4940 H   0  0  0  0  0  0  0  0  0  0  0  0
    3.3770   18.6780   -5.6230 H   0  0  0  0  0  0  0  0  0  0  0  0
    3.6530   19.1740   -3.3640 H   0  0  0  0  0  0  0  0  0  0  0  0
    2.2240   19.6810   -2.4480 H   0  0  0  0  0  0  0  0  0  0  0  0
    2.3860   21.8800   -3.1270 H   0  0  0  0  0  0  0  0  0  0  0  0
    3.0010   21.4590   -4.7340 H   0  0  0  0  0  0  0  0  0  0  0  0
    5.2520   21.1910   -3.9200 H   0  0  0  0  0  0  0  0  0  0  0  0
    4.7210   21.1700   -2.2280 H   0  0  0  0  0  0  0  0  0  0  0  0
    4.1200   23.6140   -3.9140 H   0  0  0  0  0  0  0  0  0  0  0  0
    5.7730   23.3800   -3.3230 H   0  0  0  0  0  0  0  0  0  0  0  0
    4.8770   23.2600   -0.9710 H   0  0  0  0  0  0  0  0  0  0  0  0
    3.2550   23.5940   -1.5990 H   0  0  0  0  0  0  0  0  0  0  0  0
    3.9780   25.7950   -2.4420 H   0  0  0  0  0  0  0  0  0  0  0  0
    5.6570   25.4570   -1.9900 H   0  0  0  0  0  0  0  0  0  0  0  0
    4.5240   26.9920   -0.3990 H   0  0  0  0  0  0  0  0  0  0  0  0
    5.1140   25.5040    0.3730 H   0  0  0  0  0  0  0  0  0  0  0  0
    4.3180   23.8490    1.7840 H   0  0  0  0  0  0  0  0  0  0  0  0
    3.9760   23.3270    4.0980 H   0  0  0  0  0  0  0  0  0  0  0  0
    2.3160   24.5180    5.4040 H   0  0  0  0  0  0  0  0  0  0  0  0
    0.9860   26.2580    4.3570 H   0  0  0  0  0  0  0  0  0  0  0  0
    1.2980   26.8070    2.0530 H   0  0  0  0  0  0  0  0  0  0  0  0
  1 20  1  0  0  0  0
  1  2  1  0  0  0  0
  2 21  1  0  0  0  0
  2  3  1  0  0  0  0
  3  4  2  0  0  0  0
  3  5  1  0  0  0  0
  5 22  1  0  0  0  0
  5 23  1  0  0  0  0
  5  6  1  0  0  0  0
  6 24  1  0  0  0  0
  6 25  1  0  0  0  0
  6  7  1  0  0  0  0
  7 26  1  0  0  0  0
  7 27  1  0  0  0  0
  7  8  1  0  0  0  0
  8 28  1  0  0  0  0
  8 29  1  0  0  0  0
  8  9  1  0  0  0  0
  9 30  1  0  0  0  0
  9 31  1  0  0  0  0
  9 10  1  0  0  0  0
 10 32  1  0  0  0  0
 10 33  1  0  0  0  0
 10 11  1  0  0  0  0
 11 34  1  0  0  0  0
 11 35  1  0  0  0  0
 11 12  1  0  0  0  0
 12 13  2  0  0  0  0
 12 14  1  0  0  0  0
 14 15  2  0  0  0  0
 15 36  1  0  0  0  0
 15 16  1  0  0  0  0
 16 37  1  0  0  0  0
 16 17  2  0  0  0  0
 17 38  1  0  0  0  0
 17 18  1  0  0  0  0
 18 39  1  0  0  0  0
 18 19  2  0  0  0  0
 19 14  1  0  0  0  0
 19 40  1  0  0  0  0
M  END
>  <EXTREG>  (Row6_000)
Row6_000

>  <Similarity>  (Row6_000)
8.3829

>  <RMSD_ISO>  (Row6_000)
0.0000

>  <STRAIN>  (Row6_000)
0.0000

>  <ID>  (Row6_000)
M006

>  <IC50>  (Row6_000)
135.0000

>  <pIC50>  (Row6_000)
6.8697

$$$$
Row7_000
  -MTS-   08231913523D 0   0.00000     0.00000     0

 38 38  0  0  0  0  0  0  0  0999 V2000
    1.9320   18.5550   -6.1140 O   0  0  0  0  0  0  0  0  0  0  0  0
    2.7380   19.1000   -5.2450 N   0  0  0  0  0  0  0  0  0  0  0  0
    2.3060   19.7220   -4.1630 C   0  0  0  0  0  0  0  0  0  0  0  0
    1.1030   19.8040   -3.9470 O   0  0  0  0  0  0  0  0  0  0  0  0
    3.2840   20.2970   -3.2550 C   0  0  0  0  0  0  0  0  0  0  0  0
    3.8120   21.7100   -3.6370 C   0  0  0  0  0  0  0  0  0  0  0  0
    4.5720   22.4100   -2.4780 C   0  0  0  0  0  0  0  0  0  0  0  0
    4.7710   23.9270   -2.7420 C   0  0  0  0  0  0  0  0  0  0  0  0
    4.8660   24.7710   -1.4370 C   0  0  0  0  0  0  0  0  0  0  0  0
    3.6020   25.1350   -0.7890 C   0  0  0  0  0  0  0  0  0  0  0  0
    2.6370   25.3360   -1.5170 O   0  0  0  0  0  0  0  0  0  0  0  0
    3.4390   25.2640    0.6060 C   0  0  0  0  0  0  0  0  0  0  0  0
    3.0110   26.4880    1.1870 C   0  0  0  0  0  0  0  0  0  0  0  0
    2.8440   26.6290    2.5770 C   0  0  0  0  0  0  0  0  0  0  0  0
    3.0970   25.5550    3.4500 C   0  0  0  0  0  0  0  0  0  0  0  0
    3.5240   24.3290    2.8890 C   0  0  0  0  0  0  0  0  0  0  0  0
    3.6900   24.1890    1.4990 C   0  0  0  0  0  0  0  0  0  0  0  0
    2.8980   25.8140    4.7880 O   0  0  0  0  0  0  0  0  0  0  0  0
    1.8800   25.1300    5.5360 C   0  0  0  0  0  0  0  0  0  0  0  0
    1.9060   17.6070   -5.8700 H   0  0  0  0  0  0  0  0  0  0  0  0
    3.6940   19.0440   -5.4010 H   0  0  0  0  0  0  0  0  0  0  0  0
    4.1360   19.6120   -3.1970 H   0  0  0  0  0  0  0  0  0  0  0  0
    2.8290   20.3550   -2.2600 H   0  0  0  0  0  0  0  0  0  0  0  0
    2.9650   22.3360   -3.9320 H   0  0  0  0  0  0  0  0  0  0  0  0
    4.4840   21.6160   -4.4940 H   0  0  0  0  0  0  0  0  0  0  0  0
    5.5510   21.9370   -2.3560 H   0  0  0  0  0  0  0  0  0  0  0  0
    4.0080   22.2790   -1.5500 H   0  0  0  0  0  0  0  0  0  0  0  0
    3.9320   24.2950   -3.3390 H   0  0  0  0  0  0  0  0  0  0  0  0
    5.6890   24.0680   -3.3200 H   0  0  0  0  0  0  0  0  0  0  0  0
    5.4030   25.6930   -1.6780 H   0  0  0  0  0  0  0  0  0  0  0  0
    5.4660   24.2050   -0.7200 H   0  0  0  0  0  0  0  0  0  0  0  0
    2.8120   27.3020    0.6070 H   0  0  0  0  0  0  0  0  0  0  0  0
    2.5340   27.5290    2.9550 H   0  0  0  0  0  0  0  0  0  0  0  0
    3.7190   23.5230    3.4850 H   0  0  0  0  0  0  0  0  0  0  0  0
    4.0000   23.2800    1.1560 H   0  0  0  0  0  0  0  0  0  0  0  0
    1.9050   25.4910    6.5640 H   0  0  0  0  0  0  0  0  0  0  0  0
    0.8910   25.3410    5.1230 H   0  0  0  0  0  0  0  0  0  0  0  0
    2.0660   24.0540    5.5460 H   0  0  0  0  0  0  0  0  0  0  0  0
  1 20  1  0  0  0  0
  1  2  1  0  0  0  0
  2 21  1  0  0  0  0
  2  3  1  0  0  0  0
  3  4  2  0  0  0  0
  3  5  1  0  0  0  0
  5 22  1  0  0  0  0
  5 23  1  0  0  0  0
  5  6  1  0  0  0  0
  6 24  1  0  0  0  0
  6 25  1  0  0  0  0
  6  7  1  0  0  0  0
  7 26  1  0  0  0  0
  7 27  1  0  0  0  0
  7  8  1  0  0  0  0
  8 28  1  0  0  0  0
  8 29  1  0  0  0  0
  8  9  1  0  0  0  0
  9 30  1  0  0  0  0
  9 31  1  0  0  0  0
  9 10  1  0  0  0  0
 10 11  2  0  0  0  0
 10 12  1  0  0  0  0
 12 13  2  0  0  0  0
 13 32  1  0  0  0  0
 13 14  1  0  0  0  0
 14 33  1  0  0  0  0
 14 15  2  0  0  0  0
 15 16  1  0  0  0  0
 16 34  1  0  0  0  0
 16 17  2  0  0  0  0
 17 12  1  0  0  0  0
 17 35  1  0  0  0  0
 15 18  1  0  0  0  0
 18 19  1  0  0  0  0
 19 36  1  0  0  0  0
 19 37  1  0  0  0  0
 19 38  1  0  0  0  0
M  END
>  <EXTREG>  (Row7_000)
Row7_000

>  <Similarity>  (Row7_000)
8.1533

>  <RMSD_ISO>  (Row7_000)
0.0000

>  <STRAIN>  (Row7_000)
0.0000

>  <ID>  (Row7_000)
M007

>  <IC50>  (Row7_000)
450.0000

>  <pIC50>  (Row7_000)
6.3468

$$$$
Row8_000
  -MTS-   08231913523D 0   0.00000     0.00000     0

 40 41  0  0  0  0  0  0  0  0999 V2000
    2.0250   18.3800   -6.2220 O   0  0  0  0  0  0  0  0  0  0  0  0
    2.7110   18.9980   -5.2950 N   0  0  0  0  0  0  0  0  0  0  0  0
    2.1390   19.5520   -4.2420 C   0  0  0  0  0  0  0  0  0  0  0  0
    0.9180   19.4900   -4.1160 O   0  0  0  0  0  0  0  0  0  0  0  0
    2.9680   20.2230   -3.2510 C   0  0  0  0  0  0  0  0  0  0  0  0
    3.3230   21.7000   -3.5750 C   0  0  0  0  0  0  0  0  0  0  0  0
    4.0410   22.4430   -2.4140 C   0  0  0  0  0  0  0  0  0  0  0  0
    4.6090   23.8130   -2.8850 C   0  0  0  0  0  0  0  0  0  0  0  0
    4.6540   24.9010   -1.7730 C   0  0  0  0  0  0  0  0  0  0  0  0
    3.4520   25.0260   -0.9330 C   0  0  0  0  0  0  0  0  0  0  0  0
    2.4180   25.3840   -1.4880 O   0  0  0  0  0  0  0  0  0  0  0  0
    3.4280   24.7600    0.4560 C   0  0  0  0  0  0  0  0  0  0  0  0
    2.5170   25.4290    1.3210 C   0  0  0  0  0  0  0  0  0  0  0  0
    2.4780   25.1760    2.7120 C   0  0  0  0  0  0  0  0  0  0  0  0
    1.5640   25.8530    3.5550 C   0  0  0  0  0  0  0  0  0  0  0  0
    1.5370   25.5920    4.9370 C   0  0  0  0  0  0  0  0  0  0  0  0
    2.4220   24.6510    5.4890 C   0  0  0  0  0  0  0  0  0  0  0  0
    3.3360   23.9690    4.6640 C   0  0  0  0  0  0  0  0  0  0  0  0
    3.3730   24.2240    3.2750 C   0  0  0  0  0  0  0  0  0  0  0  0
    4.2810   23.5520    2.4340 C   0  0  0  0  0  0  0  0  0  0  0  0
    4.3050   23.8170    1.0530 C   0  0  0  0  0  0  0  0  0  0  0  0
    2.3360   17.4510   -6.1840 H   0  0  0  0  0  0  0  0  0  0  0  0
    3.6780   19.0510   -5.3890 H   0  0  0  0  0  0  0  0  0  0  0  0
    3.8990   19.6560   -3.1470 H   0  0  0  0  0  0  0  0  0  0  0  0
    2.4400   20.1950   -2.2920 H   0  0  0  0  0  0  0  0  0  0  0  0
    2.4030   22.2400   -3.8160 H   0  0  0  0  0  0  0  0  0  0  0  0
    3.9720   21.7220   -4.4550 H   0  0  0  0  0  0  0  0  0  0  0  0
    4.8620   21.8240   -2.0380 H   0  0  0  0  0  0  0  0  0  0  0  0
    3.3350   22.6090   -1.5950 H   0  0  0  0  0  0  0  0  0  0  0  0
    3.9900   24.1800   -3.7110 H   0  0  0  0  0  0  0  0  0  0  0  0
    5.6260   23.6560   -3.2640 H   0  0  0  0  0  0  0  0  0  0  0  0
    4.8400   25.8650   -2.2610 H   0  0  0  0  0  0  0  0  0  0  0  0
    5.5100   24.6770   -1.1260 H   0  0  0  0  0  0  0  0  0  0  0  0
    1.8660   26.1170    0.9370 H   0  0  0  0  0  0  0  0  0  0  0  0
    0.9120   26.5420    3.1710 H   0  0  0  0  0  0  0  0  0  0  0  0
    0.8750   26.0840    5.5390 H   0  0  0  0  0  0  0  0  0  0  0  0
    2.4000   24.4610    6.4980 H   0  0  0  0  0  0  0  0  0  0  0  0
    3.9730   23.2870    5.0870 H   0  0  0  0  0  0  0  0  0  0  0  0
    4.9320   22.8640    2.8180 H   0  0  0  0  0  0  0  0  0  0  0  0
    4.9810   23.3040    0.4860 H   0  0  0  0  0  0  0  0  0  0  0  0
  1 22  1  0  0  0  0
  1  2  1  0  0  0  0
  2 23  1  0  0  0  0
  2  3  1  0  0  0  0
  3  4  2  0  0  0  0
  3  5  1  0  0  0  0
  5 24  1  0  0  0  0
  5 25  1  0  0  0  0
  5  6  1  0  0  0  0
  6 26  1  0  0  0  0
  6 27  1  0  0  0  0
  6  7  1  0  0  0  0
  7 28  1  0  0  0  0
  7 29  1  0  0  0  0
  7  8  1  0  0  0  0
  8 30  1  0  0  0  0
  8 31  1  0  0  0  0
  8  9  1  0  0  0  0
  9 32  1  0  0  0  0
  9 33  1  0  0  0  0
  9 10  1  0  0  0  0
 10 11  2  0  0  0  0
 10 12  1  0  0  0  0
 12 13  2  0  0  0  0
 13 34  1  0  0  0  0
 13 14  1  0  0  0  0
 14 15  1  0  0  0  0
 15 35  1  0  0  0  0
 15 16  2  0  0  0  0
 16 36  1  0  0  0  0
 16 17  1  0  0  0  0
 17 37  1  0  0  0  0
 17 18  2  0  0  0  0
 18 38  1  0  0  0  0
 18 19  1  0  0  0  0
 19 14  2  0  0  0  0
 19 20  1  0  0  0  0
 20 39  1  0  0  0  0
 20 21  2  0  0  0  0
 21 12  1  0  0  0  0
 21 40  1  0  0  0  0
M  END
>  <EXTREG>  (Row8_000)
Row8_000

>  <Similarity>  (Row8_000)
8.7259

>  <RMSD_ISO>  (Row8_000)
0.0000

>  <STRAIN>  (Row8_000)
0.0000

>  <ID>  (Row8_000)
M008

>  <IC50>  (Row8_000)
35.0000

>  <pIC50>  (Row8_000)
7.4559

$$$$
Row9_000
  -MTS-   08231913523D 0   0.00000     0.00000     0

 36 36  0  0  0  0  0  0  0  0999 V2000
    2.1290   18.3780   -6.3130 O   0  0  0  0  0  0  0  0  0  0  0  0
    2.7260   18.9850   -5.3220 N   0  0  0  0  0  0  0  0  0  0  0  0
    2.0640   19.5030   -4.3030 C   0  0  0  0  0  0  0  0  0  0  0  0
    0.8410   19.4210   -4.2660 O   0  0  0  0  0  0  0  0  0  0  0  0
    2.8110   20.1620   -3.2410 C   0  0  0  0  0  0  0  0  0  0  0  0
    3.4830   21.5090   -3.6260 C   0  0  0  0  0  0  0  0  0  0  0  0
    4.0290   22.2950   -2.4040 C   0  0  0  0  0  0  0  0  0  0  0  0
    4.8090   23.5600   -2.8450 C   0  0  0  0  0  0  0  0  0  0  0  0
    5.5850   24.2380   -1.6860 C   0  0  0  0  0  0  0  0  0  0  0  0
    4.8350   25.4720   -1.1040 C   0  0  0  0  0  0  0  0  0  0  0  0
    3.4490   25.2520   -0.6730 C   0  0  0  0  0  0  0  0  0  0  0  0
    2.5790   25.2780   -1.5380 O   0  0  0  0  0  0  0  0  0  0  0  0
    3.0670   25.0160    0.6630 C   0  0  0  0  0  0  0  0  0  0  0  0
    2.1810   25.8740    1.3680 C   0  0  0  0  0  0  0  0  0  0  0  0
    1.8320   25.6200    2.6560 N   0  0  0  0  0  0  0  0  0  0  0  0
    2.2980   24.5490    3.3460 C   0  0  0  0  0  0  0  0  0  0  0  0
    3.1780   23.6530    2.7210 C   0  0  0  0  0  0  0  0  0  0  0  0
    3.5560   23.8920    1.3870 C   0  0  0  0  0  0  0  0  0  0  0  0
    2.2700   17.4240   -6.1370 H   0  0  0  0  0  0  0  0  0  0  0  0
    3.6960   19.0560   -5.3390 H   0  0  0  0  0  0  0  0  0  0  0  0
    3.5880   19.4720   -2.8970 H   0  0  0  0  0  0  0  0  0  0  0  0
    2.1240   20.3420   -2.4080 H   0  0  0  0  0  0  0  0  0  0  0  0
    2.7510   22.1310   -4.1480 H   0  0  0  0  0  0  0  0  0  0  0  0
    4.3100   21.3050   -4.3130 H   0  0  0  0  0  0  0  0  0  0  0  0
    4.6890   21.6450   -1.8240 H   0  0  0  0  0  0  0  0  0  0  0  0
    3.1920   22.5900   -1.7640 H   0  0  0  0  0  0  0  0  0  0  0  0
    4.1040   24.2810   -3.2650 H   0  0  0  0  0  0  0  0  0  0  0  0
    5.5190   23.2810   -3.6270 H   0  0  0  0  0  0  0  0  0  0  0  0
    6.5640   24.5580   -2.0520 H   0  0  0  0  0  0  0  0  0  0  0  0
    5.7390   23.5080   -0.8860 H   0  0  0  0  0  0  0  0  0  0  0  0
    4.8340   26.2560   -1.8690 H   0  0  0  0  0  0  0  0  0  0  0  0
    5.4060   25.8390   -0.2450 H   0  0  0  0  0  0  0  0  0  0  0  0
    1.7800   26.7060    0.9300 H   0  0  0  0  0  0  0  0  0  0  0  0
    2.0050   24.4020    4.3140 H   0  0  0  0  0  0  0  0  0  0  0  0
    3.5380   22.8410    3.2280 H   0  0  0  0  0  0  0  0  0  0  0  0
    4.1990   23.2270    0.9480 H   0  0  0  0  0  0  0  0  0  0  0  0
  1 19  1  0  0  0  0
  1  2  1  0  0  0  0
  2 20  1  0  0  0  0
  2  3  1  0  0  0  0
  3  4  2  0  0  0  0
  3  5  1  0  0  0  0
  5 21  1  0  0  0  0
  5 22  1  0  0  0  0
  5  6  1  0  0  0  0
  6 23  1  0  0  0  0
  6 24  1  0  0  0  0
  6  7  1  0  0  0  0
  7 25  1  0  0  0  0
  7 26  1  0  0  0  0
  7  8  1  0  0  0  0
  8 27  1  0  0  0  0
  8 28  1  0  0  0  0
  8  9  1  0  0  0  0
  9 29  1  0  0  0  0
  9 30  1  0  0  0  0
  9 10  1  0  0  0  0
 10 31  1  0  0  0  0
 10 32  1  0  0  0  0
 10 11  1  0  0  0  0
 11 12  2  0  0  0  0
 11 13  1  0  0  0  0
 13 14  2  0  0  0  0
 14 33  1  0  0  0  0
 14 15  1  0  0  0  0
 15 16  2  0  0  0  0
 16 34  1  0  0  0  0
 16 17  1  0  0  0  0
 17 35  1  0  0  0  0
 17 18  2  0  0  0  0
 18 13  1  0  0  0  0
 18 36  1  0  0  0  0
M  END
>  <EXTREG>  (Row9_000)
Row9_000

>  <Similarity>  (Row9_000)
7.7211

>  <RMSD_ISO>  (Row9_000)
0.0000

>  <STRAIN>  (Row9_000)
0.0000

>  <ID>  (Row9_000)
M009

>  <IC50>  (Row9_000)
153.0000

>  <pIC50>  (Row9_000)
6.8153

$$$$
Row10_000
  -MTS-   08231913523D 0   0.00000     0.00000     0

 41 41  0  0  0  0  0  0  0  0999 V2000
    1.8680   17.9010   -6.7320 O   0  0  0  0  0  0  0  0  0  0  0  0
    2.6290   18.5130   -5.8570 N   0  0  0  0  0  0  0  0  0  0  0  0
    2.1590   19.0160   -4.7250 C   0  0  0  0  0  0  0  0  0  0  0  0
    0.9640   18.9150   -4.4660 O   0  0  0  0  0  0  0  0  0  0  0  0
    3.0760   19.6800   -3.8090 C   0  0  0  0  0  0  0  0  0  0  0  0
    3.3900   21.1680   -4.1350 C   0  0  0  0  0  0  0  0  0  0  0  0
    2.4160   22.1610   -3.4490 C   0  0  0  0  0  0  0  0  0  0  0  0
    2.8900   22.5570   -2.0290 C   0  0  0  0  0  0  0  0  0  0  0  0
    3.8200   23.7950   -2.0140 C   0  0  0  0  0  0  0  0  0  0  0  0
    3.9390   24.4410   -0.5980 C   0  0  0  0  0  0  0  0  0  0  0  0
    2.7450   25.1270   -0.0800 C   0  0  0  0  0  0  0  0  0  0  0  0
    2.0590   25.7100   -0.9130 O   0  0  0  0  0  0  0  0  0  0  0  0
    2.3590   25.1480    1.2900 C   0  0  0  0  0  0  0  0  0  0  0  0
    2.0350   23.9550    2.0100 C   0  0  0  0  0  0  0  0  0  0  0  0
    1.6550   24.0310    3.3740 C   0  0  0  0  0  0  0  0  0  0  0  0
    1.5900   25.2640    4.0430 C   0  0  0  0  0  0  0  0  0  0  0  0
    1.9050   26.4420    3.3510 C   0  0  0  0  0  0  0  0  0  0  0  0
    2.2830   26.3820    1.9970 C   0  0  0  0  0  0  0  0  0  0  0  0
    2.1010   22.7460    1.3450 O   0  0  0  0  0  0  0  0  0  0  0  0
    2.9890   21.6820    1.7110 C   0  0  0  0  0  0  0  0  0  0  0  0
    2.0870   16.9540   -6.6310 H   0  0  0  0  0  0  0  0  0  0  0  0
    3.5800   18.5970   -6.0550 H   0  0  0  0  0  0  0  0  0  0  0  0
    4.0150   19.1210   -3.8120 H   0  0  0  0  0  0  0  0  0  0  0  0
    2.6440   19.6310   -2.8070 H   0  0  0  0  0  0  0  0  0  0  0  0
    3.3360   21.3160   -5.2180 H   0  0  0  0  0  0  0  0  0  0  0  0
    4.4100   21.3970   -3.8110 H   0  0  0  0  0  0  0  0  0  0  0  0
    1.4270   21.6990   -3.3850 H   0  0  0  0  0  0  0  0  0  0  0  0
    2.3320   23.0600   -4.0670 H   0  0  0  0  0  0  0  0  0  0  0  0
    3.4250   21.7150   -1.5880 H   0  0  0  0  0  0  0  0  0  0  0  0
    2.0150   22.7720   -1.4120 H   0  0  0  0  0  0  0  0  0  0  0  0
    3.4290   24.5400   -2.7120 H   0  0  0  0  0  0  0  0  0  0  0  0
    4.8160   23.4930   -2.3510 H   0  0  0  0  0  0  0  0  0  0  0  0
    4.7590   25.1680   -0.6280 H   0  0  0  0  0  0  0  0  0  0  0  0
    4.2080   23.6490    0.1110 H   0  0  0  0  0  0  0  0  0  0  0  0
    1.4230   23.1860    3.8950 H   0  0  0  0  0  0  0  0  0  0  0  0
    1.3130   25.3050    5.0330 H   0  0  0  0  0  0  0  0  0  0  0  0
    1.8580   27.3440    3.8360 H   0  0  0  0  0  0  0  0  0  0  0  0
    2.5030   27.2710    1.5340 H   0  0  0  0  0  0  0  0  0  0  0  0
    2.8350   20.8490    1.0240 H   0  0  0  0  0  0  0  0  0  0  0  0
    4.0250   22.0090    1.6310 H   0  0  0  0  0  0  0  0  0  0  0  0
    2.7740   21.3400    2.7230 H   0  0  0  0  0  0  0  0  0  0  0  0
  1 21  1  0  0  0  0
  1  2  1  0  0  0  0
  2 22  1  0  0  0  0
  2  3  1  0  0  0  0
  3  4  2  0  0  0  0
  3  5  1  0  0  0  0
  5 23  1  0  0  0  0
  5 24  1  0  0  0  0
  5  6  1  0  0  0  0
  6 25  1  0  0  0  0
  6 26  1  0  0  0  0
  6  7  1  0  0  0  0
  7 27  1  0  0  0  0
  7 28  1  0  0  0  0
  7  8  1  0  0  0  0
  8 29  1  0  0  0  0
  8 30  1  0  0  0  0
  8  9  1  0  0  0  0
  9 31  1  0  0  0  0
  9 32  1  0  0  0  0
  9 10  1  0  0  0  0
 10 33  1  0  0  0  0
 10 34  1  0  0  0  0
 10 11  1  0  0  0  0
 11 12  2  0  0  0  0
 11 13  1  0  0  0  0
 13 14  2  0  0  0  0
 14 15  1  0  0  0  0
 15 35  1  0  0  0  0
 15 16  2  0  0  0  0
 16 36  1  0  0  0  0
 16 17  1  0  0  0  0
 17 37  1  0  0  0  0
 17 18  2  0  0  0  0
 18 13  1  0  0  0  0
 18 38  1  0  0  0  0
 14 19  1  0  0  0  0
 19 20  1  0  0  0  0
 20 39  1  0  0  0  0
 20 40  1  0  0  0  0
 20 41  1  0  0  0  0
M  END
>  <EXTREG>  (Row10_000)
Row10_000

>  <Similarity>  (Row10_000)
7.8559

>  <RMSD_ISO>  (Row10_000)
0.0000

>  <STRAIN>  (Row10_000)
0.0000

>  <ID>  (Row10_000)
M010

>  <IC50>  (Row10_000)
95.0000

>  <pIC50>  (Row10_000)
7.0223

$$$$
Row11_000
  -MTS-   08231913523D 0   0.00000     0.00000     0

 41 41  0  0  0  0  0  0  0  0999 V2000
    1.8000   18.1870   -6.0360 O   0  0  0  0  0  0  0  0  0  0  0  0
    2.5040   19.1120   -5.4310 N   0  0  0  0  0  0  0  0  0  0  0  0
    1.9970   19.8920   -4.4930 C   0  0  0  0  0  0  0  0  0  0  0  0
    0.8210   19.7620   -4.1580 O   0  0  0  0  0  0  0  0  0  0  0  0
    2.8540   20.8940   -3.8750 C   0  0  0  0  0  0  0  0  0  0  0  0
    4.2520   20.3960   -3.4060 C   0  0  0  0  0  0  0  0  0  0  0  0
    4.7560   21.0990   -2.1150 C   0  0  0  0  0  0  0  0  0  0  0  0
    4.6860   22.6470   -2.2270 C   0  0  0  0  0  0  0  0  0  0  0  0
    5.2970   23.3880   -1.0070 C   0  0  0  0  0  0  0  0  0  0  0  0
    4.7830   24.8510   -0.8910 C   0  0  0  0  0  0  0  0  0  0  0  0
    3.3970   25.0400   -0.4380 C   0  0  0  0  0  0  0  0  0  0  0  0
    2.5420   25.2170   -1.3010 O   0  0  0  0  0  0  0  0  0  0  0  0
    3.0070   25.0290    0.9240 C   0  0  0  0  0  0  0  0  0  0  0  0
    2.5670   26.2130    1.5770 C   0  0  0  0  0  0  0  0  0  0  0  0
    2.1780   26.2060    2.9330 C   0  0  0  0  0  0  0  0  0  0  0  0
    2.2130   25.0210    3.6910 C   0  0  0  0  0  0  0  0  0  0  0  0
    2.6490   23.8330    3.0570 C   0  0  0  0  0  0  0  0  0  0  0  0
    3.0370   23.8420    1.7040 C   0  0  0  0  0  0  0  0  0  0  0  0
    1.8130   25.1250    5.0050 O   0  0  0  0  0  0  0  0  0  0  0  0
    2.6840   24.7130    6.0640 C   0  0  0  0  0  0  0  0  0  0  0  0
    2.0360   17.3570   -5.5700 H   0  0  0  0  0  0  0  0  0  0  0  0
    3.4390   19.2260   -5.6880 H   0  0  0  0  0  0  0  0  0  0  0  0
    2.3240   21.3010   -3.0100 H   0  0  0  0  0  0  0  0  0  0  0  0
    2.9990   21.7030   -4.5960 H   0  0  0  0  0  0  0  0  0  0  0  0
    4.9720   20.5710   -4.2100 H   0  0  0  0  0  0  0  0  0  0  0  0
    4.1950   19.3190   -3.2250 H   0  0  0  0  0  0  0  0  0  0  0  0
    5.7920   20.8020   -1.9240 H   0  0  0  0  0  0  0  0  0  0  0  0
    4.1450   20.7760   -1.2670 H   0  0  0  0  0  0  0  0  0  0  0  0
    3.6390   22.9430   -2.3310 H   0  0  0  0  0  0  0  0  0  0  0  0
    5.2200   22.9560   -3.1300 H   0  0  0  0  0  0  0  0  0  0  0  0
    6.3860   23.3960   -1.1040 H   0  0  0  0  0  0  0  0  0  0  0  0
    5.0390   22.8430   -0.0950 H   0  0  0  0  0  0  0  0  0  0  0  0
    4.8830   25.3150   -1.8760 H   0  0  0  0  0  0  0  0  0  0  0  0
    5.4410   25.3780   -0.1970 H   0  0  0  0  0  0  0  0  0  0  0  0
    2.5220   27.1040    1.0720 H   0  0  0  0  0  0  0  0  0  0  0  0
    1.8660   27.0810    3.3690 H   0  0  0  0  0  0  0  0  0  0  0  0
    2.6870   22.9540    3.5790 H   0  0  0  0  0  0  0  0  0  0  0  0
    3.3440   22.9540    1.2960 H   0  0  0  0  0  0  0  0  0  0  0  0
    2.1740   24.8790    7.0160 H   0  0  0  0  0  0  0  0  0  0  0  0
    2.9210   23.6510    5.9790 H   0  0  0  0  0  0  0  0  0  0  0  0
    3.6040   25.2980    6.0570 H   0  0  0  0  0  0  0  0  0  0  0  0
  1 21  1  0  0  0  0
  1  2  1  0  0  0  0
  2 22  1  0  0  0  0
  2  3  1  0  0  0  0
  3  4  2  0  0  0  0
  3  5  1  0  0  0  0
  5 23  1  0  0  0  0
  5 24  1  0  0  0  0
  5  6  1  0  0  0  0
  6 25  1  0  0  0  0
  6 26  1  0  0  0  0
  6  7  1  0  0  0  0
  7 27  1  0  0  0  0
  7 28  1  0  0  0  0
  7  8  1  0  0  0  0
  8 29  1  0  0  0  0
  8 30  1  0  0  0  0
  8  9  1  0  0  0  0
  9 31  1  0  0  0  0
  9 32  1  0  0  0  0
  9 10  1  0  0  0  0
 10 33  1  0  0  0  0
 10 34  1  0  0  0  0
 10 11  1  0  0  0  0
 11 12  2  0  0  0  0
 11 13  1  0  0  0  0
 13 14  2  0  0  0  0
 14 35  1  0  0  0  0
 14 15  1  0  0  0  0
 15 36  1  0  0  0  0
 15 16  2  0  0  0  0
 16 17  1  0  0  0  0
 17 37  1  0  0  0  0
 17 18  2  0  0  0  0
 18 13  1  0  0  0  0
 18 38  1  0  0  0  0
 16 19  1  0  0  0  0
 19 20  1  0  0  0  0
 20 39  1  0  0  0  0
 20 40  1  0  0  0  0
 20 41  1  0  0  0  0
M  END
>  <EXTREG>  (Row11_000)
Row11_000

>  <Similarity>  (Row11_000)
8.1552

>  <RMSD_ISO>  (Row11_000)
0.0000

>  <STRAIN>  (Row11_000)
0.0000

>  <ID>  (Row11_000)
M011

>  <IC50>  (Row11_000)
15.0000

>  <pIC50>  (Row11_000)
7.8239

$$$$
Row12_000
  -MTS-   08231913523D 0   0.00000     0.00000     0

 40 40  0  0  0  0  0  0  0  0999 V2000
    1.9840   18.0730   -6.0130 O   0  0  0  0  0  0  0  0  0  0  0  0
    2.6290   19.0470   -5.4260 N   0  0  0  0  0  0  0  0  0  0  0  0
    2.0660   19.8220   -4.5150 C   0  0  0  0  0  0  0  0  0  0  0  0
    0.9000   19.6350   -4.1970 O   0  0  0  0  0  0  0  0  0  0  0  0
    2.8570   20.8830   -3.9120 C   0  0  0  0  0  0  0  0  0  0  0  0
    3.7740   20.4560   -2.7310 C   0  0  0  0  0  0  0  0  0  0  0  0
    4.9950   21.3970   -2.5460 C   0  0  0  0  0  0  0  0  0  0  0  0
    4.6360   22.6400   -1.6940 C   0  0  0  0  0  0  0  0  0  0  0  0
    5.2120   23.9670   -2.2580 C   0  0  0  0  0  0  0  0  0  0  0  0
    4.8670   25.1930   -1.3630 C   0  0  0  0  0  0  0  0  0  0  0  0
    3.5380   25.2070   -0.7440 C   0  0  0  0  0  0  0  0  0  0  0  0
    2.5730   25.3400   -1.4930 O   0  0  0  0  0  0  0  0  0  0  0  0
    3.3080   25.0850    0.6450 C   0  0  0  0  0  0  0  0  0  0  0  0
    2.1680   25.6710    1.2530 C   0  0  0  0  0  0  0  0  0  0  0  0
    1.9310   25.5710    2.6380 C   0  0  0  0  0  0  0  0  0  0  0  0
    2.8370   24.8870    3.4800 C   0  0  0  0  0  0  0  0  0  0  0  0
    3.9610   24.2760    2.8860 C   0  0  0  0  0  0  0  0  0  0  0  0
    4.1970   24.3760    1.4990 C   0  0  0  0  0  0  0  0  0  0  0  0
    2.5660   24.7520    4.9390 C   0  0  0  0  0  0  0  0  0  0  0  0
    1.8210   23.6200    5.1550 F   0  0  0  0  0  0  0  0  0  0  0  0
    1.8730   25.8200    5.4580 F   0  0  0  0  0  0  0  0  0  0  0  0
    3.7160   24.6560    5.6880 F   0  0  0  0  0  0  0  0  0  0  0  0
    2.4170   17.2590   -5.6780 H   0  0  0  0  0  0  0  0  0  0  0  0
    3.5570   19.2030   -5.6730 H   0  0  0  0  0  0  0  0  0  0  0  0
    2.1680   21.6540   -3.5540 H   0  0  0  0  0  0  0  0  0  0  0  0
    3.4830   21.3220   -4.6940 H   0  0  0  0  0  0  0  0  0  0  0  0
    4.1330   19.4400   -2.9100 H   0  0  0  0  0  0  0  0  0  0  0  0
    3.1870   20.4540   -1.8090 H   0  0  0  0  0  0  0  0  0  0  0  0
    5.3510   21.7220   -3.5290 H   0  0  0  0  0  0  0  0  0  0  0  0
    5.8050   20.8450   -2.0580 H   0  0  0  0  0  0  0  0  0  0  0  0
    5.0170   22.4940   -0.6800 H   0  0  0  0  0  0  0  0  0  0  0  0
    3.5460   22.7250   -1.6400 H   0  0  0  0  0  0  0  0  0  0  0  0
    4.8080   24.1330   -3.2590 H   0  0  0  0  0  0  0  0  0  0  0  0
    6.2980   23.8780   -2.3340 H   0  0  0  0  0  0  0  0  0  0  0  0
    4.9670   26.0960   -1.9760 H   0  0  0  0  0  0  0  0  0  0  0  0
    5.6140   25.2460   -0.5630 H   0  0  0  0  0  0  0  0  0  0  0  0
    1.4820   26.1840    0.6920 H   0  0  0  0  0  0  0  0  0  0  0  0
    1.0890   26.0030    3.0230 H   0  0  0  0  0  0  0  0  0  0  0  0
    4.6270   23.7450    3.4550 H   0  0  0  0  0  0  0  0  0  0  0  0
    5.0290   23.9200    1.1230 H   0  0  0  0  0  0  0  0  0  0  0  0
  1 23  1  0  0  0  0
  1  2  1  0  0  0  0
  2 24  1  0  0  0  0
  2  3  1  0  0  0  0
  3  4  2  0  0  0  0
  3  5  1  0  0  0  0
  5 25  1  0  0  0  0
  5 26  1  0  0  0  0
  5  6  1  0  0  0  0
  6 27  1  0  0  0  0
  6 28  1  0  0  0  0
  6  7  1  0  0  0  0
  7 29  1  0  0  0  0
  7 30  1  0  0  0  0
  7  8  1  0  0  0  0
  8 31  1  0  0  0  0
  8 32  1  0  0  0  0
  8  9  1  0  0  0  0
  9 33  1  0  0  0  0
  9 34  1  0  0  0  0
  9 10  1  0  0  0  0
 10 35  1  0  0  0  0
 10 36  1  0  0  0  0
 10 11  1  0  0  0  0
 11 12  2  0  0  0  0
 11 13  1  0  0  0  0
 13 14  2  0  0  0  0
 14 37  1  0  0  0  0
 14 15  1  0  0  0  0
 15 38  1  0  0  0  0
 15 16  2  0  0  0  0
 16 17  1  0  0  0  0
 17 39  1  0  0  0  0
 17 18  2  0  0  0  0
 18 13  1  0  0  0  0
 18 40  1  0  0  0  0
 16 19  1  0  0  0  0
 19 20  1  0  0  0  0
 19 21  1  0  0  0  0
 19 22  1  0  0  0  0
M  END
>  <EXTREG>  (Row12_000)
Row12_000

>  <Similarity>  (Row12_000)
8.6857

>  <RMSD_ISO>  (Row12_000)
0.0000

>  <STRAIN>  (Row12_000)
0.0000

>  <ID>  (Row12_000)
M012

>  <IC50>  (Row12_000)
45.0000

>  <pIC50>  (Row12_000)
7.3468

$$$$
Row13_000
  -MTS-   08231913523D 0   0.00000     0.00000     0

 37 37  0  0  0  0  0  0  0  0999 V2000
    1.9980   17.9050   -6.4690 O   0  0  0  0  0  0  0  0  0  0  0  0
    2.5910   18.6240   -5.5500 N   0  0  0  0  0  0  0  0  0  0  0  0
    1.9300   19.2160   -4.5740 C   0  0  0  0  0  0  0  0  0  0  0  0
    0.7110   19.1010   -4.5080 O   0  0  0  0  0  0  0  0  0  0  0  0
    2.6770   19.9950   -3.5970 C   0  0  0  0  0  0  0  0  0  0  0  0
    2.8540   21.5050   -3.9280 C   0  0  0  0  0  0  0  0  0  0  0  0
    3.5720   22.3020   -2.8070 C   0  0  0  0  0  0  0  0  0  0  0  0
    3.4930   23.8290   -3.0610 C   0  0  0  0  0  0  0  0  0  0  0  0
    4.6570   24.6190   -2.4070 C   0  0  0  0  0  0  0  0  0  0  0  0
    4.5660   24.6400   -0.8550 C   0  0  0  0  0  0  0  0  0  0  0  0
    3.3790   25.2740   -0.2720 C   0  0  0  0  0  0  0  0  0  0  0  0
    2.6560   25.9060   -1.0350 O   0  0  0  0  0  0  0  0  0  0  0  0
    3.0250   25.2010    1.0940 C   0  0  0  0  0  0  0  0  0  0  0  0
    2.4730   26.3290    1.7660 C   0  0  0  0  0  0  0  0  0  0  0  0
    2.1160   26.2710    3.1270 C   0  0  0  0  0  0  0  0  0  0  0  0
    2.2990   25.0840    3.8530 C   0  0  0  0  0  0  0  0  0  0  0  0
    2.8440   23.9510    3.2110 C   0  0  0  0  0  0  0  0  0  0  0  0
    3.2000   24.0110    1.8530 C   0  0  0  0  0  0  0  0  0  0  0  0
    1.8250   25.0120    5.6520 Br  0  0  0  0  0  0  0  0  0  0  0  0
    2.1930   16.9760   -6.2180 H   0  0  0  0  0  0  0  0  0  0  0  0
    3.5570   18.7250   -5.5880 H   0  0  0  0  0  0  0  0  0  0  0  0
    3.6680   19.5430   -3.4900 H   0  0  0  0  0  0  0  0  0  0  0  0
    2.1670   19.9070   -2.6330 H   0  0  0  0  0  0  0  0  0  0  0  0
    1.8660   21.9370   -4.0970 H   0  0  0  0  0  0  0  0  0  0  0  0
    3.4300   21.5890   -4.8510 H   0  0  0  0  0  0  0  0  0  0  0  0
    4.6220   21.9960   -2.7610 H   0  0  0  0  0  0  0  0  0  0  0  0
    3.1080   22.0700   -1.8430 H   0  0  0  0  0  0  0  0  0  0  0  0
    2.5450   24.2050   -2.6650 H   0  0  0  0  0  0  0  0  0  0  0  0
    3.5060   24.0100   -4.1400 H   0  0  0  0  0  0  0  0  0  0  0  0
    4.6420   25.6450   -2.7780 H   0  0  0  0  0  0  0  0  0  0  0  0
    5.6040   24.1630   -2.7020 H   0  0  0  0  0  0  0  0  0  0  0  0
    5.4530   25.1550   -0.4750 H   0  0  0  0  0  0  0  0  0  0  0  0
    4.6110   23.6050   -0.5030 H   0  0  0  0  0  0  0  0  0  0  0  0
    2.3210   27.2150    1.2780 H   0  0  0  0  0  0  0  0  0  0  0  0
    1.7210   27.0970    3.5870 H   0  0  0  0  0  0  0  0  0  0  0  0
    2.9800   23.0830    3.7360 H   0  0  0  0  0  0  0  0  0  0  0  0
    3.5910   23.1630    1.4330 H   0  0  0  0  0  0  0  0  0  0  0  0
  1 20  1  0  0  0  0
  1  2  1  0  0  0  0
  2 21  1  0  0  0  0
  2  3  1  0  0  0  0
  3  4  2  0  0  0  0
  3  5  1  0  0  0  0
  5 22  1  0  0  0  0
  5 23  1  0  0  0  0
  5  6  1  0  0  0  0
  6 24  1  0  0  0  0
  6 25  1  0  0  0  0
  6  7  1  0  0  0  0
  7 26  1  0  0  0  0
  7 27  1  0  0  0  0
  7  8  1  0  0  0  0
  8 28  1  0  0  0  0
  8 29  1  0  0  0  0
  8  9  1  0  0  0  0
  9 30  1  0  0  0  0
  9 31  1  0  0  0  0
  9 10  1  0  0  0  0
 10 32  1  0  0  0  0
 10 33  1  0  0  0  0
 10 11  1  0  0  0  0
 11 12  2  0  0  0  0
 11 13  1  0  0  0  0
 13 14  2  0  0  0  0
 14 34  1  0  0  0  0
 14 15  1  0  0  0  0
 15 35  1  0  0  0  0
 15 16  2  0  0  0  0
 16 17  1  0  0  0  0
 17 36  1  0  0  0  0
 17 18  2  0  0  0  0
 18 13  1  0  0  0  0
 18 37  1  0  0  0  0
 16 19  1  0  0  0  0
M  END
>  <EXTREG>  (Row13_000)
Row13_000

>  <Similarity>  (Row13_000)
8.5205

>  <RMSD_ISO>  (Row13_000)
0.0000

>  <STRAIN>  (Row13_000)
0.0000

>  <ID>  (Row13_000)
M013

>  <IC50>  (Row13_000)
45.0000

>  <pIC50>  (Row13_000)
7.3468

$$$$
Row14_000
  -MTS-   08231913523D 0   0.00000     0.00000     0

 47 48  0  0  0  0  0  0  0  0999 V2000
    1.8170   17.5040   -6.7730 O   0  0  0  0  0  0  0  0  0  0  0  0
    2.3390   18.0390   -5.7000 N   0  0  0  0  0  0  0  0  0  0  0  0
    1.6680   18.1560   -4.5660 C   0  0  0  0  0  0  0  0  0  0  0  0
    0.5130   17.7530   -4.5000 O   0  0  0  0  0  0  0  0  0  0  0  0
    2.3210   18.7630   -3.4180 C   0  0  0  0  0  0  0  0  0  0  0  0
    2.3220   20.3170   -3.3730 C   0  0  0  0  0  0  0  0  0  0  0  0
    3.5000   20.8890   -2.5360 C   0  0  0  0  0  0  0  0  0  0  0  0
    3.4180   22.4320   -2.4060 C   0  0  0  0  0  0  0  0  0  0  0  0
    4.6030   23.0510   -1.6170 C   0  0  0  0  0  0  0  0  0  0  0  0
    4.6010   24.6060   -1.6700 C   0  0  0  0  0  0  0  0  0  0  0  0
    3.5060   25.2940   -0.9830 C   0  0  0  0  0  0  0  0  0  0  0  0
    2.7290   25.9420   -1.6750 O   0  0  0  0  0  0  0  0  0  0  0  0
    3.3040   25.2530    0.4150 C   0  0  0  0  0  0  0  0  0  0  0  0
    2.0380   24.9070    0.9630 C   0  0  0  0  0  0  0  0  0  0  0  0
    1.8180   24.8660    2.3540 C   0  0  0  0  0  0  0  0  0  0  0  0
    2.8550   25.1620    3.2690 C   0  0  0  0  0  0  0  0  0  0  0  0
    4.1200   25.5050    2.7340 C   0  0  0  0  0  0  0  0  0  0  0  0
    4.3370   25.5510    1.3440 C   0  0  0  0  0  0  0  0  0  0  0  0
    2.6340   25.1140    4.6820 C   0  0  0  0  0  0  0  0  0  0  0  0
    3.1310   24.0420    5.4650 C   0  0  0  0  0  0  0  0  0  0  0  0
    2.9130   23.9950    6.8550 C   0  0  0  0  0  0  0  0  0  0  0  0
    2.1940   25.0220    7.4890 C   0  0  0  0  0  0  0  0  0  0  0  0
    1.6950   26.0980    6.7330 C   0  0  0  0  0  0  0  0  0  0  0  0
    1.9110   26.1400    5.3420 C   0  0  0  0  0  0  0  0  0  0  0  0
    2.1720   16.5910   -6.7840 H   0  0  0  0  0  0  0  0  0  0  0  0
    3.2570   18.3630   -5.7420 H   0  0  0  0  0  0  0  0  0  0  0  0
    3.3600   18.4170   -3.4010 H   0  0  0  0  0  0  0  0  0  0  0  0
    1.8260   18.3930   -2.5150 H   0  0  0  0  0  0  0  0  0  0  0  0
    1.3780   20.6630   -2.9410 H   0  0  0  0  0  0  0  0  0  0  0  0
    2.3920   20.7040   -4.3950 H   0  0  0  0  0  0  0  0  0  0  0  0
    4.4440   20.6130   -3.0170 H   0  0  0  0  0  0  0  0  0  0  0  0
    3.4790   20.4380   -1.5390 H   0  0  0  0  0  0  0  0  0  0  0  0
    2.4840   22.6900   -1.9010 H   0  0  0  0  0  0  0  0  0  0  0  0
    3.3970   22.8650   -3.4090 H   0  0  0  0  0  0  0  0  0  0  0  0
    5.5410   22.6800   -2.0370 H   0  0  0  0  0  0  0  0  0  0  0  0
    4.5420   22.7280   -0.5750 H   0  0  0  0  0  0  0  0  0  0  0  0
    4.5810   24.9040   -2.7210 H   0  0  0  0  0  0  0  0  0  0  0  0
    5.5430   24.9540   -1.2380 H   0  0  0  0  0  0  0  0  0  0  0  0
    1.2480   24.6830    0.3500 H   0  0  0  0  0  0  0  0  0  0  0  0
    0.8790   24.6300    2.6910 H   0  0  0  0  0  0  0  0  0  0  0  0
    4.9060   25.7110    3.3580 H   0  0  0  0  0  0  0  0  0  0  0  0
    5.2740   25.8050    1.0200 H   0  0  0  0  0  0  0  0  0  0  0  0
    3.6750   23.2900    5.0320 H   0  0  0  0  0  0  0  0  0  0  0  0
    3.2820   23.2160    7.4070 H   0  0  0  0  0  0  0  0  0  0  0  0
    2.0350   24.9900    8.5000 H   0  0  0  0  0  0  0  0  0  0  0  0
    1.1730   26.8470    7.1940 H   0  0  0  0  0  0  0  0  0  0  0  0
    1.5220   26.9250    4.8140 H   0  0  0  0  0  0  0  0  0  0  0  0
  1 25  1  0  0  0  0
  1  2  1  0  0  0  0
  2 26  1  0  0  0  0
  2  3  1  0  0  0  0
  3  4  2  0  0  0  0
  3  5  1  0  0  0  0
  5 27  1  0  0  0  0
  5 28  1  0  0  0  0
  5  6  1  0  0  0  0
  6 29  1  0  0  0  0
  6 30  1  0  0  0  0
  6  7  1  0  0  0  0
  7 31  1  0  0  0  0
  7 32  1  0  0  0  0
  7  8  1  0  0  0  0
  8 33  1  0  0  0  0
  8 34  1  0  0  0  0
  8  9  1  0  0  0  0
  9 35  1  0  0  0  0
  9 36  1  0  0  0  0
  9 10  1  0  0  0  0
 10 37  1  0  0  0  0
 10 38  1  0  0  0  0
 10 11  1  0  0  0  0
 11 12  2  0  0  0  0
 11 13  1  0  0  0  0
 13 14  2  0  0  0  0
 14 39  1  0  0  0  0
 14 15  1  0  0  0  0
 15 40  1  0  0  0  0
 15 16  2  0  0  0  0
 16 17  1  0  0  0  0
 17 41  1  0  0  0  0
 17 18  2  0  0  0  0
 18 13  1  0  0  0  0
 18 42  1  0  0  0  0
 16 19  1  0  0  0  0
 19 20  2  0  0  0  0
 20 43  1  0  0  0  0
 20 21  1  0  0  0  0
 21 44  1  0  0  0  0
 21 22  2  0  0  0  0
 22 45  1  0  0  0  0
 22 23  1  0  0  0  0
 23 46  1  0  0  0  0
 23 24  2  0  0  0  0
 24 19  1  0  0  0  0
 24 47  1  0  0  0  0
M  END
>  <EXTREG>  (Row14_000)
Row14_000

>  <Similarity>  (Row14_000)
8.3309

>  <RMSD_ISO>  (Row14_000)
0.0000

>  <STRAIN>  (Row14_000)
0.0000

>  <ID>  (Row14_000)
M014

>  <IC50>  (Row14_000)
5.0000

>  <pIC50>  (Row14_000)
8.3010

$$$$
Row15_000
  -MTS-   08231913523D 0   0.00000     0.00000     0

 45 46  0  0  0  0  0  0  0  0999 V2000
    1.5300   17.0800   -6.0900 O   0  0  0  0  0  0  0  0  0  0  0  0
    2.2840   18.1010   -5.7710 N   0  0  0  0  0  0  0  0  0  0  0  0
    1.8310   19.1430   -5.0930 C   0  0  0  0  0  0  0  0  0  0  0  0
    0.6570   19.1770   -4.7370 O   0  0  0  0  0  0  0  0  0  0  0  0
    2.7510   20.2290   -4.7870 C   0  0  0  0  0  0  0  0  0  0  0  0
    3.5030   20.1240   -3.4330 C   0  0  0  0  0  0  0  0  0  0  0  0
    4.1860   21.4570   -3.0410 C   0  0  0  0  0  0  0  0  0  0  0  0
    4.4000   21.5980   -1.5120 C   0  0  0  0  0  0  0  0  0  0  0  0
    4.3050   23.0730   -1.0400 C   0  0  0  0  0  0  0  0  0  0  0  0
    2.8370   23.5610   -0.8960 C   0  0  0  0  0  0  0  0  0  0  0  0
    2.7560   24.9070   -0.2980 C   0  0  0  0  0  0  0  0  0  0  0  0
    2.9240   25.9350   -1.0620 N   0  0  0  0  0  0  0  0  0  0  0  0
    3.1500   25.9710   -2.3170 O   0  0  0  0  0  0  0  0  0  0  0  0
    2.4880   25.1310    1.0820 C   0  0  0  0  0  0  0  0  0  0  0  0
    3.0750   24.3150    2.0930 C   0  0  0  0  0  0  0  0  0  0  0  0
    2.8170   24.5140    3.4670 C   0  0  0  0  0  0  0  0  0  0  0  0
    3.4120   23.6870    4.4490 C   0  0  0  0  0  0  0  0  0  0  0  0
    3.1340   23.8900    5.8120 C   0  0  0  0  0  0  0  0  0  0  0  0
    2.2660   24.9220    6.2090 C   0  0  0  0  0  0  0  0  0  0  0  0
    1.6760   25.7570    5.2430 C   0  0  0  0  0  0  0  0  0  0  0  0
    1.9460   25.5600    3.8710 C   0  0  0  0  0  0  0  0  0  0  0  0
    1.3640   26.3870    2.8910 C   0  0  0  0  0  0  0  0  0  0  0  0
    1.6340   26.1780    1.5280 C   0  0  0  0  0  0  0  0  0  0  0  0
    1.8270   16.3610   -5.4950 H   0  0  0  0  0  0  0  0  0  0  0  0
    3.2200   18.0900   -6.0440 H   0  0  0  0  0  0  0  0  0  0  0  0
    2.1830   21.1640   -4.7980 H   0  0  0  0  0  0  0  0  0  0  0  0
    3.4930   20.2770   -5.5900 H   0  0  0  0  0  0  0  0  0  0  0  0
    4.2610   19.3380   -3.5050 H   0  0  0  0  0  0  0  0  0  0  0  0
    2.7940   19.8420   -2.6490 H   0  0  0  0  0  0  0  0  0  0  0  0
    3.5690   22.2890   -3.3900 H   0  0  0  0  0  0  0  0  0  0  0  0
    5.1590   21.5200   -3.5360 H   0  0  0  0  0  0  0  0  0  0  0  0
    5.3870   21.2040   -1.2530 H   0  0  0  0  0  0  0  0  0  0  0  0
    3.6430   21.0060   -0.9860 H   0  0  0  0  0  0  0  0  0  0  0  0
    4.8330   23.7070   -1.7580 H   0  0  0  0  0  0  0  0  0  0  0  0
    4.8050   23.1720   -0.0720 H   0  0  0  0  0  0  0  0  0  0  0  0
    2.2970   22.8310   -0.2820 H   0  0  0  0  0  0  0  0  0  0  0  0
    2.3370   23.5460   -1.8680 H   0  0  0  0  0  0  0  0  0  0  0  0
    4.1060   25.7640   -2.3970 H   0  0  0  0  0  0  0  0  0  0  0  0
    3.7010   23.5460    1.8300 H   0  0  0  0  0  0  0  0  0  0  0  0
    4.0530   22.9330    4.1820 H   0  0  0  0  0  0  0  0  0  0  0  0
    3.5650   23.2870    6.5190 H   0  0  0  0  0  0  0  0  0  0  0  0
    2.0670   25.0720    7.2020 H   0  0  0  0  0  0  0  0  0  0  0  0
    1.0490   26.5080    5.5500 H   0  0  0  0  0  0  0  0  0  0  0  0
    0.7380   27.1480    3.1630 H   0  0  0  0  0  0  0  0  0  0  0  0
    1.1850   26.8110    0.8630 H   0  0  0  0  0  0  0  0  0  0  0  0
  1 24  1  0  0  0  0
  1  2  1  0  0  0  0
  2 25  1  0  0  0  0
  2  3  1  0  0  0  0
  3  4  2  0  0  0  0
  3  5  1  0  0  0  0
  5 26  1  0  0  0  0
  5 27  1  0  0  0  0
  5  6  1  0  0  0  0
  6 28  1  0  0  0  0
  6 29  1  0  0  0  0
  6  7  1  0  0  0  0
  7 30  1  0  0  0  0
  7 31  1  0  0  0  0
  7  8  1  0  0  0  0
  8 32  1  0  0  0  0
  8 33  1  0  0  0  0
  8  9  1  0  0  0  0
  9 34  1  0  0  0  0
  9 35  1  0  0  0  0
  9 10  1  0  0  0  0
 10 36  1  0  0  0  0
 10 37  1  0  0  0  0
 10 11  1  0  0  0  0
 11 12  2  0  0  0  0
 12 13  1  0  0  0  0
 13 38  1  0  0  0  0
 11 14  1  0  0  0  0
 14 15  2  0  0  0  0
 15 39  1  0  0  0  0
 15 16  1  0  0  0  0
 16 17  1  0  0  0  0
 17 40  1  0  0  0  0
 17 18  2  0  0  0  0
 18 41  1  0  0  0  0
 18 19  1  0  0  0  0
 19 42  1  0  0  0  0
 19 20  2  0  0  0  0
 20 43  1  0  0  0  0
 20 21  1  0  0  0  0
 21 16  2  0  0  0  0
 21 22  1  0  0  0  0
 22 44  1  0  0  0  0
 22 23  2  0  0  0  0
 23 14  1  0  0  0  0
 23 45  1  0  0  0  0
M  END
>  <EXTREG>  (Row15_000)
Row15_000

>  <Similarity>  (Row15_000)
7.7345

>  <RMSD_ISO>  (Row15_000)
0.0000

>  <STRAIN>  (Row15_000)
0.0000

>  <ID>  (Row15_000)
M015

>  <IC50>  (Row15_000)
8.5000

>  <pIC50>  (Row15_000)
8.0706

$$$$
Row16_000
  -MTS-   08231913523D 0   0.00000     0.00000     0

 49 50  0  0  0  0  0  0  0  0999 V2000
    2.1260   18.0730   -6.3480 O   0  0  0  0  0  0  0  0  0  0  0  0
    2.6510   18.7250   -5.3460 N   0  0  0  0  0  0  0  0  0  0  0  0
    1.9250   19.2520   -4.3750 C   0  0  0  0  0  0  0  0  0  0  0  0
    0.7040   19.1440   -4.3920 O   0  0  0  0  0  0  0  0  0  0  0  0
    2.6140   19.9540   -3.3070 C   0  0  0  0  0  0  0  0  0  0  0  0
    3.2730   21.3050   -3.7020 C   0  0  0  0  0  0  0  0  0  0  0  0
    4.2960   21.7930   -2.6440 C   0  0  0  0  0  0  0  0  0  0  0  0
    4.9970   23.1140   -3.0490 C   0  0  0  0  0  0  0  0  0  0  0  0
    5.5840   23.8630   -1.8250 C   0  0  0  0  0  0  0  0  0  0  0  0
    4.6750   25.0230   -1.3320 C   0  0  0  0  0  0  0  0  0  0  0  0
    3.3670   24.5400   -0.8510 C   0  0  0  0  0  0  0  0  0  0  0  0
    2.4960   24.1570   -1.7230 N   0  0  0  0  0  0  0  0  0  0  0  0
    1.3150   23.7190   -1.5300 O   0  0  0  0  0  0  0  0  0  0  0  0
    3.0270   24.4550    0.5230 C   0  0  0  0  0  0  0  0  0  0  0  0
    3.6260   23.4880    1.3820 C   0  0  0  0  0  0  0  0  0  0  0  0
    3.3000   23.3990    2.7470 C   0  0  0  0  0  0  0  0  0  0  0  0
    2.3490   24.2720    3.3240 C   0  0  0  0  0  0  0  0  0  0  0  0
    1.7450   25.2410    2.4890 C   0  0  0  0  0  0  0  0  0  0  0  0
    2.0830   25.3340    1.1270 C   0  0  0  0  0  0  0  0  0  0  0  0
    2.0060   24.1790    4.7030 C   0  0  0  0  0  0  0  0  0  0  0  0
    0.6750   23.9000    5.1020 C   0  0  0  0  0  0  0  0  0  0  0  0
    0.3370   23.8130    6.4660 C   0  0  0  0  0  0  0  0  0  0  0  0
    1.3220   24.0140    7.4500 C   0  0  0  0  0  0  0  0  0  0  0  0
    2.6470   24.2900    7.0710 C   0  0  0  0  0  0  0  0  0  0  0  0
    2.9880   24.3690    5.7080 C   0  0  0  0  0  0  0  0  0  0  0  0
    2.3670   17.1370   -6.1810 H   0  0  0  0  0  0  0  0  0  0  0  0
    3.6190   18.8230   -5.3100 H   0  0  0  0  0  0  0  0  0  0  0  0
    3.3890   19.2920   -2.9110 H   0  0  0  0  0  0  0  0  0  0  0  0
    1.8910   20.1450   -2.5060 H   0  0  0  0  0  0  0  0  0  0  0  0
    2.4930   22.0620   -3.8220 H   0  0  0  0  0  0  0  0  0  0  0  0
    3.7860   21.1850   -4.6610 H   0  0  0  0  0  0  0  0  0  0  0  0
    5.0520   21.0140   -2.5000 H   0  0  0  0  0  0  0  0  0  0  0  0
    3.7780   21.9440   -1.6920 H   0  0  0  0  0  0  0  0  0  0  0  0
    4.2730   23.7630   -3.5510 H   0  0  0  0  0  0  0  0  0  0  0  0
    5.8040   22.8900   -3.7550 H   0  0  0  0  0  0  0  0  0  0  0  0
    6.5690   24.2600   -2.0910 H   0  0  0  0  0  0  0  0  0  0  0  0
    5.7210   23.1490   -1.0050 H   0  0  0  0  0  0  0  0  0  0  0  0
    4.5460   25.7330   -2.1540 H   0  0  0  0  0  0  0  0  0  0  0  0
    5.1830   25.5920   -0.5490 H   0  0  0  0  0  0  0  0  0  0  0  0
    1.0490   23.3390   -2.3920 H   0  0  0  0  0  0  0  0  0  0  0  0
    4.3130   22.8180    1.0210 H   0  0  0  0  0  0  0  0  0  0  0  0
    3.7530   22.6760    3.3170 H   0  0  0  0  0  0  0  0  0  0  0  0
    1.0690   25.9040    2.8770 H   0  0  0  0  0  0  0  0  0  0  0  0
    1.6280   26.0740    0.5880 H   0  0  0  0  0  0  0  0  0  0  0  0
   -0.0560   23.7440    4.4020 H   0  0  0  0  0  0  0  0  0  0  0  0
   -0.6270   23.6020    6.7410 H   0  0  0  0  0  0  0  0  0  0  0  0
    1.0730   23.9580    8.4410 H   0  0  0  0  0  0  0  0  0  0  0  0
    3.3640   24.4360    7.7860 H   0  0  0  0  0  0  0  0  0  0  0  0
    3.9570   24.5830    5.4520 H   0  0  0  0  0  0  0  0  0  0  0  0
  1 26  1  0  0  0  0
  1  2  1  0  0  0  0
  2 27  1  0  0  0  0
  2  3  1  0  0  0  0
  3  4  2  0  0  0  0
  3  5  1  0  0  0  0
  5 28  1  0  0  0  0
  5 29  1  0  0  0  0
  5  6  1  0  0  0  0
  6 30  1  0  0  0  0
  6 31  1  0  0  0  0
  6  7  1  0  0  0  0
  7 32  1  0  0  0  0
  7 33  1  0  0  0  0
  7  8  1  0  0  0  0
  8 34  1  0  0  0  0
  8 35  1  0  0  0  0
  8  9  1  0  0  0  0
  9 36  1  0  0  0  0
  9 37  1  0  0  0  0
  9 10  1  0  0  0  0
 10 38  1  0  0  0  0
 10 39  1  0  0  0  0
 10 11  1  0  0  0  0
 11 12  2  0  0  0  0
 12 13  1  0  0  0  0
 13 40  1  0  0  0  0
 11 14  1  0  0  0  0
 14 15  2  0  0  0  0
 15 41  1  0  0  0  0
 15 16  1  0  0  0  0
 16 42  1  0  0  0  0
 16 17  2  0  0  0  0
 17 18  1  0  0  0  0
 18 43  1  0  0  0  0
 18 19  2  0  0  0  0
 19 14  1  0  0  0  0
 19 44  1  0  0  0  0
 17 20  1  0  0  0  0
 20 21  2  0  0  0  0
 21 45  1  0  0  0  0
 21 22  1  0  0  0  0
 22 46  1  0  0  0  0
 22 23  2  0  0  0  0
 23 47  1  0  0  0  0
 23 24  1  0  0  0  0
 24 48  1  0  0  0  0
 24 25  2  0  0  0  0
 25 20  1  0  0  0  0
 25 49  1  0  0  0  0
M  END
>  <EXTREG>  (Row16_000)
Row16_000

>  <Similarity>  (Row16_000)
7.2482

>  <RMSD_ISO>  (Row16_000)
0.0000

>  <STRAIN>  (Row16_000)
0.0000

>  <ID>  (Row16_000)
M016

>  <IC50>  (Row16_000)
4.0000

>  <pIC50>  (Row16_000)
8.3979

$$$$
Row17_000
  -MTS-   08231913523D 0   0.00000     0.00000     0

 45 46  0  0  0  0  0  0  0  0999 V2000
    2.3220   17.1790   -6.2360 O   0  0  0  0  0  0  0  0  0  0  0  0
    2.8240   18.1680   -5.5480 N   0  0  0  0  0  0  0  0  0  0  0  0
    2.0810   19.0760   -4.9380 C   0  0  0  0  0  0  0  0  0  0  0  0
    0.8600   19.0210   -5.0230 O   0  0  0  0  0  0  0  0  0  0  0  0
    2.7530   20.1210   -4.1790 C   0  0  0  0  0  0  0  0  0  0  0  0
    1.8490   20.9660   -3.2350 C   0  0  0  0  0  0  0  0  0  0  0  0
    2.4750   22.3470   -2.8990 C   0  0  0  0  0  0  0  0  0  0  0  0
    3.6550   22.2580   -1.8930 C   0  0  0  0  0  0  0  0  0  0  0  0
    4.3580   23.6330   -1.7000 C   0  0  0  0  0  0  0  0  0  0  0  0
    3.3940   24.7490   -1.2050 C   0  0  0  0  0  0  0  0  0  0  0  0
    3.9860   25.5920   -0.1510 C   0  0  0  0  0  0  0  0  0  0  0  0
    4.6070   26.7320   -0.5220 C   0  0  0  0  0  0  0  0  0  0  0  0
    3.8910   25.2320    1.2140 C   0  0  0  0  0  0  0  0  0  0  0  0
    2.9010   25.7940    2.0680 C   0  0  0  0  0  0  0  0  0  0  0  0
    2.7870   25.4210    3.4270 C   0  0  0  0  0  0  0  0  0  0  0  0
    1.7780   25.9720    4.2540 C   0  0  0  0  0  0  0  0  0  0  0  0
    1.6680   25.5840    5.6020 C   0  0  0  0  0  0  0  0  0  0  0  0
    2.5660   24.6480    6.1390 C   0  0  0  0  0  0  0  0  0  0  0  0
    3.5800   24.0940    5.3300 C   0  0  0  0  0  0  0  0  0  0  0  0
    3.6950   24.4720    3.9720 C   0  0  0  0  0  0  0  0  0  0  0  0
    4.6900   23.9140    3.1390 C   0  0  0  0  0  0  0  0  0  0  0  0
    4.7790   24.2870    1.7860 C   0  0  0  0  0  0  0  0  0  0  0  0
    2.8220   16.3870   -5.9410 H   0  0  0  0  0  0  0  0  0  0  0  0
    3.7890   18.2350   -5.4820 H   0  0  0  0  0  0  0  0  0  0  0  0
    3.2360   20.7950   -4.8930 H   0  0  0  0  0  0  0  0  0  0  0  0
    3.5380   19.6500   -3.5790 H   0  0  0  0  0  0  0  0  0  0  0  0
    1.6760   20.4110   -2.3060 H   0  0  0  0  0  0  0  0  0  0  0  0
    0.8810   21.1300   -3.7190 H   0  0  0  0  0  0  0  0  0  0  0  0
    1.7040   22.9940   -2.4710 H   0  0  0  0  0  0  0  0  0  0  0  0
    2.8330   22.8100   -3.8230 H   0  0  0  0  0  0  0  0  0  0  0  0
    4.3850   21.5250   -2.2540 H   0  0  0  0  0  0  0  0  0  0  0  0
    3.2800   21.9130   -0.9260 H   0  0  0  0  0  0  0  0  0  0  0  0
    4.8010   23.9400   -2.6500 H   0  0  0  0  0  0  0  0  0  0  0  0
    5.1690   23.5080   -0.9830 H   0  0  0  0  0  0  0  0  0  0  0  0
    2.4790   24.2910   -0.8270 H   0  0  0  0  0  0  0  0  0  0  0  0
    3.0910   25.3550   -2.0610 H   0  0  0  0  0  0  0  0  0  0  0  0
    4.6850   26.9900   -1.4780 H   0  0  0  0  0  0  0  0  0  0  0  0
    4.9600   27.3760    0.1460 H   0  0  0  0  0  0  0  0  0  0  0  0
    2.2580   26.4990    1.7000 H   0  0  0  0  0  0  0  0  0  0  0  0
    1.1130   26.6520    3.8780 H   0  0  0  0  0  0  0  0  0  0  0  0
    0.9370   25.9890    6.1970 H   0  0  0  0  0  0  0  0  0  0  0  0
    2.4810   24.3660    7.1190 H   0  0  0  0  0  0  0  0  0  0  0  0
    4.2240   23.4150    5.7410 H   0  0  0  0  0  0  0  0  0  0  0  0
    5.3460   23.2210    3.5060 H   0  0  0  0  0  0  0  0  0  0  0  0
    5.4980   23.8400    1.2150 H   0  0  0  0  0  0  0  0  0  0  0  0
  1 23  1  0  0  0  0
  1  2  1  0  0  0  0
  2 24  1  0  0  0  0
  2  3  1  0  0  0  0
  3  4  2  0  0  0  0
  3  5  1  0  0  0  0
  5 25  1  0  0  0  0
  5 26  1  0  0  0  0
  5  6  1  0  0  0  0
  6 27  1  0  0  0  0
  6 28  1  0  0  0  0
  6  7  1  0  0  0  0
  7 29  1  0  0  0  0
  7 30  1  0  0  0  0
  7  8  1  0  0  0  0
  8 31  1  0  0  0  0
  8 32  1  0  0  0  0
  8  9  1  0  0  0  0
  9 33  1  0  0  0  0
  9 34  1  0  0  0  0
  9 10  1  0  0  0  0
 10 35  1  0  0  0  0
 10 36  1  0  0  0  0
 10 11  1  0  0  0  0
 11 12  2  0  0  0  0
 12 37  1  0  0  0  0
 12 38  1  0  0  0  0
 11 13  1  0  0  0  0
 13 14  2  0  0  0  0
 14 39  1  0  0  0  0
 14 15  1  0  0  0  0
 15 16  1  0  0  0  0
 16 40  1  0  0  0  0
 16 17  2  0  0  0  0
 17 41  1  0  0  0  0
 17 18  1  0  0  0  0
 18 42  1  0  0  0  0
 18 19  2  0  0  0  0
 19 43  1  0  0  0  0
 19 20  1  0  0  0  0
 20 15  2  0  0  0  0
 20 21  1  0  0  0  0
 21 44  1  0  0  0  0
 21 22  2  0  0  0  0
 22 13  1  0  0  0  0
 22 45  1  0  0  0  0
M  END
>  <EXTREG>  (Row17_000)
Row17_000

>  <Similarity>  (Row17_000)
7.7047

>  <RMSD_ISO>  (Row17_000)
0.0000

>  <STRAIN>  (Row17_000)
0.0000

>  <ID>  (Row17_000)
M017

>  <IC50>  (Row17_000)
8.0000

>  <pIC50>  (Row17_000)
8.0969

$$$$
Row18_000
  -MTS-   08231913523D 0   0.00000     0.00000     0

 47 48  0  0  0  0  0  0  0  0999 V2000
    2.0520   18.5890   -6.0800 O   0  0  0  0  0  0  0  0  0  0  0  0
    2.7690   19.0320   -5.0800 N   0  0  0  0  0  0  0  0  0  0  0  0
    2.2260   19.5970   -4.0120 C   0  0  0  0  0  0  0  0  0  0  0  0
    1.0100   19.7160   -3.9420 O   0  0  0  0  0  0  0  0  0  0  0  0
    3.0940   20.0630   -2.9440 C   0  0  0  0  0  0  0  0  0  0  0  0
    4.1810   21.0990   -3.3500 C   0  0  0  0  0  0  0  0  0  0  0  0
    3.8900   22.5190   -2.7900 C   0  0  0  0  0  0  0  0  0  0  0  0
    5.0430   23.5080   -3.1010 C   0  0  0  0  0  0  0  0  0  0  0  0
    4.6260   24.9980   -3.0040 C   0  0  0  0  0  0  0  0  0  0  0  0
    4.5580   25.4990   -1.5320 C   0  0  0  0  0  0  0  0  0  0  0  0
    3.2710   25.3730   -0.8460 C   0  0  0  0  0  0  0  0  0  0  0  0
    2.2590   25.4120   -1.5380 O   0  0  0  0  0  0  0  0  0  0  0  0
    3.1350   25.2140    0.5510 C   0  0  0  0  0  0  0  0  0  0  0  0
    3.4050   23.9660    1.1780 C   0  0  0  0  0  0  0  0  0  0  0  0
    3.2710   23.7890    2.5690 C   0  0  0  0  0  0  0  0  0  0  0  0
    2.8650   24.8550    3.4060 C   0  0  0  0  0  0  0  0  0  0  0  0
    2.5950   26.1010    2.7950 C   0  0  0  0  0  0  0  0  0  0  0  0
    2.7250   26.2750    1.4030 C   0  0  0  0  0  0  0  0  0  0  0  0
    2.7340   24.6770    4.8200 C   0  0  0  0  0  0  0  0  0  0  0  0
    1.5100   24.9510    5.4820 C   0  0  0  0  0  0  0  0  0  0  0  0
    1.3810   24.7760    6.8720 C   0  0  0  0  0  0  0  0  0  0  0  0
    2.4750   24.3210    7.6290 C   0  0  0  0  0  0  0  0  0  0  0  0
    3.6960   24.0390    6.9920 C   0  0  0  0  0  0  0  0  0  0  0  0
    3.8240   24.2180    5.6020 C   0  0  0  0  0  0  0  0  0  0  0  0
    2.3100   24.0900    9.4690 Br  0  0  0  0  0  0  0  0  0  0  0  0
    2.0150   17.6200   -5.9370 H   0  0  0  0  0  0  0  0  0  0  0  0
    3.7380   18.9410   -5.1270 H   0  0  0  0  0  0  0  0  0  0  0  0
    3.5940   19.1910   -2.5140 H   0  0  0  0  0  0  0  0  0  0  0  0
    2.4640   20.5110   -2.1710 H   0  0  0  0  0  0  0  0  0  0  0  0
    4.2360   21.1510   -4.4420 H   0  0  0  0  0  0  0  0  0  0  0  0
    5.1540   20.7620   -2.9760 H   0  0  0  0  0  0  0  0  0  0  0  0
    3.7500   22.4520   -1.7070 H   0  0  0  0  0  0  0  0  0  0  0  0
    2.9610   22.8920   -3.2330 H   0  0  0  0  0  0  0  0  0  0  0  0
    5.4100   23.3080   -4.1110 H   0  0  0  0  0  0  0  0  0  0  0  0
    5.8590   23.3220   -2.3980 H   0  0  0  0  0  0  0  0  0  0  0  0
    3.6450   25.1230   -3.4690 H   0  0  0  0  0  0  0  0  0  0  0  0
    5.3470   25.6060   -3.5550 H   0  0  0  0  0  0  0  0  0  0  0  0
    4.8430   26.5540   -1.5250 H   0  0  0  0  0  0  0  0  0  0  0  0
    5.3030   24.9440   -0.9570 H   0  0  0  0  0  0  0  0  0  0  0  0
    3.7030   23.1580    0.6230 H   0  0  0  0  0  0  0  0  0  0  0  0
    3.4590   22.8620    2.9630 H   0  0  0  0  0  0  0  0  0  0  0  0
    2.3150   26.9060    3.3630 H   0  0  0  0  0  0  0  0  0  0  0  0
    2.5170   27.2000    1.0200 H   0  0  0  0  0  0  0  0  0  0  0  0
    0.6920   25.2650    4.9530 H   0  0  0  0  0  0  0  0  0  0  0  0
    0.4890   24.9750    7.3330 H   0  0  0  0  0  0  0  0  0  0  0  0
    4.4940   23.7060    7.5390 H   0  0  0  0  0  0  0  0  0  0  0  0
    4.7290   24.0240    5.1670 H   0  0  0  0  0  0  0  0  0  0  0  0
  1 26  1  0  0  0  0
  1  2  1  0  0  0  0
  2 27  1  0  0  0  0
  2  3  1  0  0  0  0
  3  4  2  0  0  0  0
  3  5  1  0  0  0  0
  5 28  1  0  0  0  0
  5 29  1  0  0  0  0
  5  6  1  0  0  0  0
  6 30  1  0  0  0  0
  6 31  1  0  0  0  0
  6  7  1  0  0  0  0
  7 32  1  0  0  0  0
  7 33  1  0  0  0  0
  7  8  1  0  0  0  0
  8 34  1  0  0  0  0
  8 35  1  0  0  0  0
  8  9  1  0  0  0  0
  9 36  1  0  0  0  0
  9 37  1  0  0  0  0
  9 10  1  0  0  0  0
 10 38  1  0  0  0  0
 10 39  1  0  0  0  0
 10 11  1  0  0  0  0
 11 12  2  0  0  0  0
 11 13  1  0  0  0  0
 13 14  2  0  0  0  0
 14 40  1  0  0  0  0
 14 15  1  0  0  0  0
 15 41  1  0  0  0  0
 15 16  2  0  0  0  0
 16 17  1  0  0  0  0
 17 42  1  0  0  0  0
 17 18  2  0  0  0  0
 18 13  1  0  0  0  0
 18 43  1  0  0  0  0
 16 19  1  0  0  0  0
 19 20  2  0  0  0  0
 20 44  1  0  0  0  0
 20 21  1  0  0  0  0
 21 45  1  0  0  0  0
 21 22  2  0  0  0  0
 22 23  1  0  0  0  0
 23 46  1  0  0  0  0
 23 24  2  0  0  0  0
 24 19  1  0  0  0  0
 24 47  1  0  0  0  0
 22 25  1  0  0  0  0
M  END
>  <EXTREG>  (Row18_000)
Row18_000

>  <Similarity>  (Row18_000)
8.3237

>  <RMSD_ISO>  (Row18_000)
0.0000

>  <STRAIN>  (Row18_000)
0.0000

>  <ID>  (Row18_000)
M018

>  <IC50>  (Row18_000)
2.0000

>  <pIC50>  (Row18_000)
8.6990

$$$$
Row19_000
  -MTS-   08231913523D 0   0.00000     0.00000     0

 52 53  0  0  0  0  0  0  0  0999 V2000
    2.0170   17.9010   -6.5940 O   0  0  0  0  0  0  0  0  0  0  0  0
    2.5440   18.5400   -5.5830 N   0  0  0  0  0  0  0  0  0  0  0  0
    1.8280   19.0440   -4.5930 C   0  0  0  0  0  0  0  0  0  0  0  0
    0.6090   18.9190   -4.6030 O   0  0  0  0  0  0  0  0  0  0  0  0
    2.5150   19.7370   -3.5120 C   0  0  0  0  0  0  0  0  0  0  0  0
    3.0810   21.1400   -3.8770 C   0  0  0  0  0  0  0  0  0  0  0  0
    3.8320   21.8090   -2.6960 C   0  0  0  0  0  0  0  0  0  0  0  0
    4.9810   22.7490   -3.1570 C   0  0  0  0  0  0  0  0  0  0  0  0
    5.4570   23.6850   -2.0150 C   0  0  0  0  0  0  0  0  0  0  0  0
    4.8050   25.0980   -2.0480 C   0  0  0  0  0  0  0  0  0  0  0  0
    3.5070   25.2430   -1.3790 C   0  0  0  0  0  0  0  0  0  0  0  0
    2.5150   25.3410   -2.0960 O   0  0  0  0  0  0  0  0  0  0  0  0
    3.3510   25.2740    0.0220 C   0  0  0  0  0  0  0  0  0  0  0  0
    3.4630   26.4910    0.7480 C   0  0  0  0  0  0  0  0  0  0  0  0
    3.3090   26.5320    2.1450 C   0  0  0  0  0  0  0  0  0  0  0  0
    3.0370   25.3520    2.8650 C   0  0  0  0  0  0  0  0  0  0  0  0
    2.9220   24.1360    2.1690 C   0  0  0  0  0  0  0  0  0  0  0  0
    3.0770   24.0990    0.7730 C   0  0  0  0  0  0  0  0  0  0  0  0
    2.8840   25.3410    4.2130 N   0  0  0  0  0  0  0  0  0  0  0  0
    3.9890   24.8100    4.9800 C   0  0  0  0  0  0  0  0  0  0  0  0
    3.9070   25.1940    6.4820 C   0  0  0  0  0  0  0  0  0  0  0  0
    2.5140   24.8640    7.0630 C   0  0  0  0  0  0  0  0  0  0  0  0
    1.3980   25.5040    6.2070 C   0  0  0  0  0  0  0  0  0  0  0  0
    1.5480   25.1070    4.7140 C   0  0  0  0  0  0  0  0  0  0  0  0
    2.4600   17.0260   -6.5890 H   0  0  0  0  0  0  0  0  0  0  0  0
    3.5090   18.6470   -5.5610 H   0  0  0  0  0  0  0  0  0  0  0  0
    3.3440   19.1060   -3.1720 H   0  0  0  0  0  0  0  0  0  0  0  0
    1.8180   19.8510   -2.6780 H   0  0  0  0  0  0  0  0  0  0  0  0
    2.2570   21.7880   -4.1810 H   0  0  0  0  0  0  0  0  0  0  0  0
    3.7730   21.0370   -4.7190 H   0  0  0  0  0  0  0  0  0  0  0  0
    4.2500   21.0250   -2.0550 H   0  0  0  0  0  0  0  0  0  0  0  0
    3.1160   22.3850   -2.1050 H   0  0  0  0  0  0  0  0  0  0  0  0
    4.6320   23.3560   -3.9940 H   0  0  0  0  0  0  0  0  0  0  0  0
    5.8250   22.1420   -3.4990 H   0  0  0  0  0  0  0  0  0  0  0  0
    6.5440   23.7970   -2.0880 H   0  0  0  0  0  0  0  0  0  0  0  0
    5.2220   23.2130   -1.0590 H   0  0  0  0  0  0  0  0  0  0  0  0
    4.6830   25.3820   -3.0950 H   0  0  0  0  0  0  0  0  0  0  0  0
    5.5080   25.7980   -1.5810 H   0  0  0  0  0  0  0  0  0  0  0  0
    3.6590   27.3700    0.2630 H   0  0  0  0  0  0  0  0  0  0  0  0
    3.3960   27.4250    2.6360 H   0  0  0  0  0  0  0  0  0  0  0  0
    2.7250   23.2690    2.6780 H   0  0  0  0  0  0  0  0  0  0  0  0
    2.9830   23.1900    0.3180 H   0  0  0  0  0  0  0  0  0  0  0  0
    3.9970   23.7150    4.8980 H   0  0  0  0  0  0  0  0  0  0  0  0
    4.9440   25.1780    4.5970 H   0  0  0  0  0  0  0  0  0  0  0  0
    4.0950   26.2670    6.5870 H   0  0  0  0  0  0  0  0  0  0  0  0
    4.6740   24.6590    7.0430 H   0  0  0  0  0  0  0  0  0  0  0  0
    2.3750   23.7780    7.0850 H   0  0  0  0  0  0  0  0  0  0  0  0
    2.4460   25.2350    8.0890 H   0  0  0  0  0  0  0  0  0  0  0  0
    1.4550   26.5960    6.2950 H   0  0  0  0  0  0  0  0  0  0  0  0
    0.4210   25.1860    6.5730 H   0  0  0  0  0  0  0  0  0  0  0  0
    1.2970   24.0520    4.6010 H   0  0  0  0  0  0  0  0  0  0  0  0
    0.8170   25.6890    4.1410 H   0  0  0  0  0  0  0  0  0  0  0  0
  1 25  1  0  0  0  0
  1  2  1  0  0  0  0
  2 26  1  0  0  0  0
  2  3  1  0  0  0  0
  3  4  2  0  0  0  0
  3  5  1  0  0  0  0
  5 27  1  0  0  0  0
  5 28  1  0  0  0  0
  5  6  1  0  0  0  0
  6 29  1  0  0  0  0
  6 30  1  0  0  0  0
  6  7  1  0  0  0  0
  7 31  1  0  0  0  0
  7 32  1  0  0  0  0
  7  8  1  0  0  0  0
  8 33  1  0  0  0  0
  8 34  1  0  0  0  0
  8  9  1  0  0  0  0
  9 35  1  0  0  0  0
  9 36  1  0  0  0  0
  9 10  1  0  0  0  0
 10 37  1  0  0  0  0
 10 38  1  0  0  0  0
 10 11  1  0  0  0  0
 11 12  2  0  0  0  0
 11 13  1  0  0  0  0
 13 14  2  0  0  0  0
 14 39  1  0  0  0  0
 14 15  1  0  0  0  0
 15 40  1  0  0  0  0
 15 16  2  0  0  0  0
 16 17  1  0  0  0  0
 17 41  1  0  0  0  0
 17 18  2  0  0  0  0
 18 13  1  0  0  0  0
 18 42  1  0  0  0  0
 16 19  1  0  0  0  0
 19 20  1  0  0  0  0
 20 43  1  0  0  0  0
 20 44  1  0  0  0  0
 20 21  1  0  0  0  0
 21 45  1  0  0  0  0
 21 46  1  0  0  0  0
 21 22  1  0  0  0  0
 22 47  1  0  0  0  0
 22 48  1  0  0  0  0
 22 23  1  0  0  0  0
 23 49  1  0  0  0  0
 23 50  1  0  0  0  0
 23 24  1  0  0  0  0
 24 19  1  0  0  0  0
 24 51  1  0  0  0  0
 24 52  1  0  0  0  0
M  END
>  <EXTREG>  (Row19_000)
Row19_000

>  <Similarity>  (Row19_000)
8.1503

>  <RMSD_ISO>  (Row19_000)
0.0000

>  <STRAIN>  (Row19_000)
0.0000

>  <ID>  (Row19_000)
M019

>  <IC50>  (Row19_000)
9.5000

>  <pIC50>  (Row19_000)
8.0223

$$$$
Row20_000
  -MTS-   08231913523D 0   0.00000     0.00000     0

 65 67  0  0  0  0  0  0  0  0999 V2000
    1.7950   18.0110   -6.4570 O   0  0  0  0  0  0  0  0  0  0  0  0
    2.4900   18.5860   -5.5150 N   0  0  0  0  0  0  0  0  0  0  0  0
    1.9330   19.2320   -4.5040 C   0  0  0  0  0  0  0  0  0  0  0  0
    0.7120   19.3130   -4.4270 O   0  0  0  0  0  0  0  0  0  0  0  0
    2.7960   19.8330   -3.5030 C   0  0  0  0  0  0  0  0  0  0  0  0
    3.7650   20.9410   -4.0100 C   0  0  0  0  0  0  0  0  0  0  0  0
    4.8550   21.2940   -2.9620 C   0  0  0  0  0  0  0  0  0  0  0  0
    4.4460   22.4650   -2.0300 C   0  0  0  0  0  0  0  0  0  0  0  0
    4.5200   23.8420   -2.7450 C   0  0  0  0  0  0  0  0  0  0  0  0
    4.6130   25.0500   -1.7680 C   0  0  0  0  0  0  0  0  0  0  0  0
    3.4930   25.2240   -0.8360 C   0  0  0  0  0  0  0  0  0  0  0  0
    2.5370   25.9070   -1.2120 O   0  0  0  0  0  0  0  0  0  0  0  0
    3.4540   24.6690    0.4590 C   0  0  0  0  0  0  0  0  0  0  0  0
    2.2620   24.0960    0.9710 C   0  0  0  0  0  0  0  0  0  0  0  0
    2.1870   23.5850    2.2780 C   0  0  0  0  0  0  0  0  0  0  0  0
    3.2910   23.6310    3.1650 C   0  0  0  0  0  0  0  0  0  0  0  0
    4.4990   24.1550    2.6300 C   0  0  0  0  0  0  0  0  0  0  0  0
    4.5810   24.6510    1.3170 C   0  0  0  0  0  0  0  0  0  0  0  0
    3.1860   23.2270    4.4780 N   0  0  0  0  0  0  0  0  0  0  0  0
    3.4270   24.1250    5.6000 C   0  0  0  0  0  0  0  0  0  0  0  0
    2.2890   24.0290    6.6510 C   0  0  0  0  0  0  0  0  0  0  0  0
    2.0870   22.6050    7.0500 N   0  3  0  0  0  0  0  0  0  0  0  0
    1.2620   22.4170    8.1730 C   0  0  0  0  0  0  0  0  0  0  0  0
    1.7700   22.0550    9.3740 C   0  0  0  0  0  0  0  0  0  0  0  0
    0.9880   21.9060   10.5940 C   0  0  0  0  0  0  0  0  0  0  0  0
   -0.0820   20.9330   10.4480 C   0  0  0  0  0  0  0  0  0  0  0  0
   -1.0320   21.0030    9.4970 C   0  0  0  0  0  0  0  0  0  0  0  0
   -1.1110   21.9630    8.5300 C   0  0  0  0  0  0  0  0  0  0  0  0
   -0.0820   22.6220    7.9580 C   0  0  0  0  0  0  0  0  0  0  0  0
    1.7720   21.7400    5.8720 C   0  0  0  0  0  0  0  0  0  0  0  0
    2.9360   21.8420    4.8570 C   0  0  0  0  0  0  0  0  0  0  0  0
    1.9820   17.0550   -6.3470 H   0  0  0  0  0  0  0  0  0  0  0  0
    3.4590   18.5350   -5.5570 H   0  0  0  0  0  0  0  0  0  0  0  0
    3.3900   19.0370   -3.0470 H   0  0  0  0  0  0  0  0  0  0  0  0
    2.1620   20.2680   -2.7250 H   0  0  0  0  0  0  0  0  0  0  0  0
    3.1920   21.8440   -4.2460 H   0  0  0  0  0  0  0  0  0  0  0  0
    4.2550   20.5960   -4.9270 H   0  0  0  0  0  0  0  0  0  0  0  0
    5.7770   21.5570   -3.4910 H   0  0  0  0  0  0  0  0  0  0  0  0
    5.0580   20.4120   -2.3490 H   0  0  0  0  0  0  0  0  0  0  0  0
    5.1090   22.4760   -1.1600 H   0  0  0  0  0  0  0  0  0  0  0  0
    3.4240   22.3040   -1.6790 H   0  0  0  0  0  0  0  0  0  0  0  0
    3.6270   23.9500   -3.3690 H   0  0  0  0  0  0  0  0  0  0  0  0
    5.3980   23.8580   -3.3970 H   0  0  0  0  0  0  0  0  0  0  0  0
    4.7050   25.9510   -2.3800 H   0  0  0  0  0  0  0  0  0  0  0  0
    5.5270   24.9440   -1.1760 H   0  0  0  0  0  0  0  0  0  0  0  0
    1.4180   24.0550    0.3970 H   0  0  0  0  0  0  0  0  0  0  0  0
    1.2750   23.2520    2.5920 H   0  0  0  0  0  0  0  0  0  0  0  0
    5.3540   24.1540    3.1850 H   0  0  0  0  0  0  0  0  0  0  0  0
    5.4830   25.0200    1.0070 H   0  0  0  0  0  0  0  0  0  0  0  0
    4.3740   23.8570    6.0750 H   0  0  0  0  0  0  0  0  0  0  0  0
    3.4890   25.1750    5.3110 H   0  0  0  0  0  0  0  0  0  0  0  0
    1.3750   24.4520    6.2300 H   0  0  0  0  0  0  0  0  0  0  0  0
    2.5710   24.6240    7.5230 H   0  0  0  0  0  0  0  0  0  0  0  0
    3.0160   22.2970    7.3430 H   0  0  0  0  0  0  0  0  0  0  0  0
    2.7510   21.8970    9.4460 H   0  0  0  0  0  0  0  0  0  0  0  0
    0.5560   22.8750   10.8590 H   0  0  0  0  0  0  0  0  0  0  0  0
    1.6450   21.6060   11.4190 H   0  0  0  0  0  0  0  0  0  0  0  0
   -0.1230   20.1830   11.1020 H   0  0  0  0  0  0  0  0  0  0  0  0
   -1.7560   20.3190    9.5200 H   0  0  0  0  0  0  0  0  0  0  0  0
   -2.0230   22.1720    8.1880 H   0  0  0  0  0  0  0  0  0  0  0  0
   -0.3260   23.2900    7.2570 H   0  0  0  0  0  0  0  0  0  0  0  0
    0.8450   22.0550    5.3830 H   0  0  0  0  0  0  0  0  0  0  0  0
    1.6640   20.6980    6.1830 H   0  0  0  0  0  0  0  0  0  0  0  0
    3.8410   21.4560    5.3310 H   0  0  0  0  0  0  0  0  0  0  0  0
    2.7330   21.1710    4.0220 H   0  0  0  0  0  0  0  0  0  0  0  0
  1 32  1  0  0  0  0
  1  2  1  0  0  0  0
  2 33  1  0  0  0  0
  2  3  1  0  0  0  0
  3  4  2  0  0  0  0
  3  5  1  0  0  0  0
  5 34  1  0  0  0  0
  5 35  1  0  0  0  0
  5  6  1  0  0  0  0
  6 36  1  0  0  0  0
  6 37  1  0  0  0  0
  6  7  1  0  0  0  0
  7 38  1  0  0  0  0
  7 39  1  0  0  0  0
  7  8  1  0  0  0  0
  8 40  1  0  0  0  0
  8 41  1  0  0  0  0
  8  9  1  0  0  0  0
  9 42  1  0  0  0  0
  9 43  1  0  0  0  0
  9 10  1  0  0  0  0
 10 44  1  0  0  0  0
 10 45  1  0  0  0  0
 10 11  1  0  0  0  0
 11 12  2  0  0  0  0
 11 13  1  0  0  0  0
 13 14  2  0  0  0  0
 14 46  1  0  0  0  0
 14 15  1  0  0  0  0
 15 47  1  0  0  0  0
 15 16  2  0  0  0  0
 16 17  1  0  0  0  0
 17 48  1  0  0  0  0
 17 18  2  0  0  0  0
 18 13  1  0  0  0  0
 18 49  1  0  0  0  0
 16 19  1  0  0  0  0
 19 20  1  0  0  0  0
 20 50  1  0  0  0  0
 20 51  1  0  0  0  0
 20 21  1  0  0  0  0
 21 52  1  0  0  0  0
 21 53  1  0  0  0  0
 21 22  1  0  0  0  0
 22 54  1  0  0  0  0
 22 23  1  0  0  0  0
 23 24  2  0  0  0  0
 24 55  1  0  0  0  0
 24 25  1  0  0  0  0
 25 56  1  0  0  0  0
 25 57  1  0  0  0  0
 25 26  1  0  0  0  0
 26 58  1  0  0  0  0
 26 27  2  0  0  0  0
 27 59  1  0  0  0  0
 27 28  1  0  0  0  0
 28 60  1  0  0  0  0
 28 29  2  0  0  0  0
 29 23  1  0  0  0  0
 29 61  1  0  0  0  0
 22 30  1  0  0  0  0
 30 62  1  0  0  0  0
 30 63  1  0  0  0  0
 30 31  1  0  0  0  0
 31 19  1  0  0  0  0
 31 64  1  0  0  0  0
 31 65  1  0  0  0  0
M  CHG  1  22   1
M  END
>  <EXTREG>  (Row20_000)
Row20_000

>  <Similarity>  (Row20_000)
7.2646

>  <RMSD_ISO>  (Row20_000)
0.0000

>  <STRAIN>  (Row20_000)
0.0000

>  <ID>  (Row20_000)
M020

>  <IC50>  (Row20_000)
4.5000

>  <pIC50>  (Row20_000)
8.3468

$$$$
Row21_000
  -MTS-   08231913523D 0   0.00000     0.00000     0

 46 47  0  0  1  0  0  0  0  0999 V2000
    1.9350   17.4090   -5.8120 O   0  0  0  0  0  0  0  0  0  0  0  0
    2.5930   18.4490   -5.3800 N   0  0  0  0  0  0  0  0  0  0  0  0
    2.0050   19.4710   -4.7800 C   0  0  0  0  0  0  0  0  0  0  0  0
    0.7900   19.4600   -4.6030 O   0  0  0  0  0  0  0  0  0  0  0  0
    2.8020   20.5970   -4.2940 C   0  0  2  0  0  0  0  0  0  0  0  0
    3.6330   21.1980   -5.4630 C   0  0  0  0  0  0  0  0  0  0  0  0
    3.6810   20.1660   -3.0750 C   0  0  0  0  0  0  0  0  0  0  0  0
    4.7080   21.2420   -2.6230 C   0  0  0  0  0  0  0  0  0  0  0  0
    4.0370   22.5930   -2.2680 C   0  0  0  0  0  0  0  0  0  0  0  0
    5.0630   23.6750   -1.8400 C   0  0  0  0  0  0  0  0  0  0  0  0
    4.3830   25.0240   -1.4640 C   0  0  0  0  0  0  0  0  0  0  0  0
    3.1400   24.9440   -0.6870 C   0  0  0  0  0  0  0  0  0  0  0  0
    2.0900   25.1650   -1.2830 O   0  0  0  0  0  0  0  0  0  0  0  0
    3.0930   24.6440    0.6920 C   0  0  0  0  0  0  0  0  0  0  0  0
    2.3780   25.4730    1.6020 C   0  0  0  0  0  0  0  0  0  0  0  0
    2.3230   25.1930    2.9870 C   0  0  0  0  0  0  0  0  0  0  0  0
    1.6090   26.0320    3.8750 C   0  0  0  0  0  0  0  0  0  0  0  0
    1.5680   25.7390    5.2510 C   0  0  0  0  0  0  0  0  0  0  0  0
    2.2360   24.6090    5.7540 C   0  0  0  0  0  0  0  0  0  0  0  0
    2.9480   23.7680    4.8800 C   0  0  0  0  0  0  0  0  0  0  0  0
    2.9990   24.0510    3.4970 C   0  0  0  0  0  0  0  0  0  0  0  0
    3.7090   23.2170    2.6090 C   0  0  0  0  0  0  0  0  0  0  0  0
    3.7540   23.5090    1.2350 C   0  0  0  0  0  0  0  0  0  0  0  0
    2.1480   16.7030   -5.1670 H   0  0  0  0  0  0  0  0  0  0  0  0
    3.5610   18.4650   -5.4910 H   0  0  0  0  0  0  0  0  0  0  0  0
    2.1250   21.3840   -3.9450 H   0  0  0  0  0  0  0  0  0  0  0  0
    4.1080   22.1290   -5.1440 H   0  0  0  0  0  0  0  0  0  0  0  0
    2.9820   21.4270   -6.3130 H   0  0  0  0  0  0  0  0  0  0  0  0
    4.4060   20.5010   -5.7930 H   0  0  0  0  0  0  0  0  0  0  0  0
    4.2160   19.2420   -3.3180 H   0  0  0  0  0  0  0  0  0  0  0  0
    3.0210   19.9520   -2.2260 H   0  0  0  0  0  0  0  0  0  0  0  0
    5.4270   21.4090   -3.4330 H   0  0  0  0  0  0  0  0  0  0  0  0
    5.2530   20.8780   -1.7480 H   0  0  0  0  0  0  0  0  0  0  0  0
    3.3280   22.4310   -1.4490 H   0  0  0  0  0  0  0  0  0  0  0  0
    3.4780   22.9510   -3.1370 H   0  0  0  0  0  0  0  0  0  0  0  0
    5.7670   23.8490   -2.6630 H   0  0  0  0  0  0  0  0  0  0  0  0
    5.6300   23.3080   -0.9780 H   0  0  0  0  0  0  0  0  0  0  0  0
    4.1710   25.5540   -2.4000 H   0  0  0  0  0  0  0  0  0  0  0  0
    5.1120   25.6120   -0.8930 H   0  0  0  0  0  0  0  0  0  0  0  0
    1.8860   26.3010    1.2540 H   0  0  0  0  0  0  0  0  0  0  0  0
    1.1160   26.8600    3.5300 H   0  0  0  0  0  0  0  0  0  0  0  0
    1.0520   26.3480    5.8880 H   0  0  0  0  0  0  0  0  0  0  0  0
    2.2050   24.3990    6.7550 H   0  0  0  0  0  0  0  0  0  0  0  0
    3.4300   22.9510    5.2610 H   0  0  0  0  0  0  0  0  0  0  0  0
    4.2000   22.3890    2.9530 H   0  0  0  0  0  0  0  0  0  0  0  0
    4.2830   22.8700    0.6360 H   0  0  0  0  0  0  0  0  0  0  0  0
  1 24  1  0  0  0  0
  1  2  1  0  0  0  0
  2 25  1  0  0  0  0
  2  3  1  0  0  0  0
  3  4  2  0  0  0  0
  3  5  1  0  0  0  0
  5 26  1  0  0  0  0
  5  6  1  0  0  0  0
  6 27  1  0  0  0  0
  6 28  1  0  0  0  0
  6 29  1  0  0  0  0
  5  7  1  0  0  0  0
  7 30  1  0  0  0  0
  7 31  1  0  0  0  0
  7  8  1  0  0  0  0
  8 32  1  0  0  0  0
  8 33  1  0  0  0  0
  8  9  1  0  0  0  0
  9 34  1  0  0  0  0
  9 35  1  0  0  0  0
  9 10  1  0  0  0  0
 10 36  1  0  0  0  0
 10 37  1  0  0  0  0
 10 11  1  0  0  0  0
 11 38  1  0  0  0  0
 11 39  1  0  0  0  0
 11 12  1  0  0  0  0
 12 13  2  0  0  0  0
 12 14  1  0  0  0  0
 14 15  2  0  0  0  0
 15 40  1  0  0  0  0
 15 16  1  0  0  0  0
 16 17  1  0  0  0  0
 17 41  1  0  0  0  0
 17 18  2  0  0  0  0
 18 42  1  0  0  0  0
 18 19  1  0  0  0  0
 19 43  1  0  0  0  0
 19 20  2  0  0  0  0
 20 44  1  0  0  0  0
 20 21  1  0  0  0  0
 21 16  2  0  0  0  0
 21 22  1  0  0  0  0
 22 45  1  0  0  0  0
 22 23  2  0  0  0  0
 23 14  1  0  0  0  0
 23 46  1  0  0  0  0
M  END
>  <EXTREG>  (Row21_000)
Row21_000

>  <Similarity>  (Row21_000)
8.5858

>  <RMSD_ISO>  (Row21_000)
0.0000

>  <STRAIN>  (Row21_000)
0.0000

>  <ID>  (Row21_000)
M021

>  <IC50>  (Row21_000)
600.0000

>  <pIC50>  (Row21_000)
6.2218

$$$$
Row22_000
  -MTS-   08231913523D 0   0.00000     0.00000     0

 39 40  0  0  0  0  0  0  0  0999 V2000
    1.8400   18.4140   -6.5630 O   0  0  0  0  0  0  0  0  0  0  0  0
    2.5830   18.9960   -5.6630 N   0  0  0  0  0  0  0  0  0  0  0  0
    2.0900   19.4990   -4.5470 C   0  0  0  0  0  0  0  0  0  0  0  0
    0.8860   19.4270   -4.3280 O   0  0  0  0  0  0  0  0  0  0  0  0
    2.9990   20.1290   -3.6010 C   0  0  0  0  0  0  0  0  0  0  0  0
    3.4190   21.5860   -3.9460 C   0  0  0  0  0  0  0  0  0  0  0  0
    4.7530   22.0010   -3.2730 C   0  0  0  0  0  0  0  0  0  0  0  0
    4.8430   23.5280   -2.9960 C   0  0  0  0  0  0  0  0  0  0  0  0
    4.1990   23.9420   -1.7540 C   0  0  0  0  0  0  0  0  0  0  0  0
    4.3790   25.1660   -1.2220 C   0  0  0  0  0  0  0  0  0  0  0  0
    3.8150   25.6750   -0.0370 C   0  0  0  0  0  0  0  0  0  0  0  0
    3.6700   24.8080    1.0750 C   0  0  0  0  0  0  0  0  0  0  0  0
    3.1130   25.2480    2.2960 C   0  0  0  0  0  0  0  0  0  0  0  0
    2.9770   24.3680    3.3940 C   0  0  0  0  0  0  0  0  0  0  0  0
    2.4210   24.8190    4.6040 C   0  0  0  0  0  0  0  0  0  0  0  0
    1.9960   26.1510    4.7310 C   0  0  0  0  0  0  0  0  0  0  0  0
    2.1250   27.0380    3.6480 C   0  0  0  0  0  0  0  0  0  0  0  0
    2.6820   26.5970    2.4260 C   0  0  0  0  0  0  0  0  0  0  0  0
    2.8210   27.4690    1.3280 C   0  0  0  0  0  0  0  0  0  0  0  0
    3.3780   27.0150    0.1200 C   0  0  0  0  0  0  0  0  0  0  0  0
    2.0100   17.4580   -6.4440 H   0  0  0  0  0  0  0  0  0  0  0  0
    3.5380   19.0590   -5.8230 H   0  0  0  0  0  0  0  0  0  0  0  0
    3.9010   19.5130   -3.5360 H   0  0  0  0  0  0  0  0  0  0  0  0
    2.5220   20.1260   -2.6180 H   0  0  0  0  0  0  0  0  0  0  0  0
    2.6280   22.2710   -3.6200 H   0  0  0  0  0  0  0  0  0  0  0  0
    3.5230   21.6800   -5.0310 H   0  0  0  0  0  0  0  0  0  0  0  0
    5.5830   21.7090   -3.9230 H   0  0  0  0  0  0  0  0  0  0  0  0
    4.8540   21.4630   -2.3260 H   0  0  0  0  0  0  0  0  0  0  0  0
    4.3740   24.0630   -3.8260 H   0  0  0  0  0  0  0  0  0  0  0  0
    5.8970   23.8160   -2.9550 H   0  0  0  0  0  0  0  0  0  0  0  0
    3.6110   23.2900   -1.2930 H   0  0  0  0  0  0  0  0  0  0  0  0
    4.9810   25.7760   -1.7290 H   0  0  0  0  0  0  0  0  0  0  0  0
    3.9750   23.8310    1.0000 H   0  0  0  0  0  0  0  0  0  0  0  0
    3.2800   23.3930    3.3240 H   0  0  0  0  0  0  0  0  0  0  0  0
    2.3250   24.1760    5.3940 H   0  0  0  0  0  0  0  0  0  0  0  0
    1.5920   26.4760    5.6120 H   0  0  0  0  0  0  0  0  0  0  0  0
    1.8090   28.0060    3.7600 H   0  0  0  0  0  0  0  0  0  0  0  0
    2.5180   28.4450    1.3980 H   0  0  0  0  0  0  0  0  0  0  0  0
    3.4540   27.6890   -0.6430 H   0  0  0  0  0  0  0  0  0  0  0  0
  1 21  1  0  0  0  0
  1  2  1  0  0  0  0
  2 22  1  0  0  0  0
  2  3  1  0  0  0  0
  3  4  2  0  0  0  0
  3  5  1  0  0  0  0
  5 23  1  0  0  0  0
  5 24  1  0  0  0  0
  5  6  1  0  0  0  0
  6 25  1  0  0  0  0
  6 26  1  0  0  0  0
  6  7  1  0  0  0  0
  7 27  1  0  0  0  0
  7 28  1  0  0  0  0
  7  8  1  0  0  0  0
  8 29  1  0  0  0  0
  8 30  1  0  0  0  0
  8  9  1  0  0  0  0
  9 31  1  0  0  0  0
  9 10  2  0  0  0  0
 10 32  1  0  0  0  0
 10 11  1  0  0  0  0
 11 12  2  0  0  0  0
 12 33  1  0  0  0  0
 12 13  1  0  0  0  0
 13 14  1  0  0  0  0
 14 34  1  0  0  0  0
 14 15  2  0  0  0  0
 15 35  1  0  0  0  0
 15 16  1  0  0  0  0
 16 36  1  0  0  0  0
 16 17  2  0  0  0  0
 17 37  1  0  0  0  0
 17 18  1  0  0  0  0
 18 13  2  0  0  0  0
 18 19  1  0  0  0  0
 19 38  1  0  0  0  0
 19 20  2  0  0  0  0
 20 11  1  0  0  0  0
 20 39  1  0  0  0  0
M  END
>  <EXTREG>  (Row22_000)
Row22_000

>  <Similarity>  (Row22_000)
7.6055

>  <RMSD_ISO>  (Row22_000)
0.0000

>  <STRAIN>  (Row22_000)
0.0000

>  <ID>  (Row22_000)
M022

>  <IC50>  (Row22_000)
2.6000

>  <pIC50>  (Row22_000)
8.5850

$$$$
Row23_000
  -MTS-   08231913523D 0   0.00000     0.00000     0

 41 42  0  0  0  0  0  0  0  0999 V2000
    2.0090   18.0320   -6.2780 O   0  0  0  0  0  0  0  0  0  0  0  0
    2.6850   18.8030   -5.4640 N   0  0  0  0  0  0  0  0  0  0  0  0
    2.0950   19.6080   -4.5960 C   0  0  0  0  0  0  0  0  0  0  0  0
    0.8730   19.6440   -4.5420 O   0  0  0  0  0  0  0  0  0  0  0  0
    2.9160   20.4370   -3.7220 C   0  0  0  0  0  0  0  0  0  0  0  0
    2.1490   21.5280   -2.9190 C   0  0  0  0  0  0  0  0  0  0  0  0
    3.0580   22.7020   -2.4660 C   0  0  0  0  0  0  0  0  0  0  0  0
    2.2770   23.7830   -1.6680 C   0  0  0  0  0  0  0  0  0  0  0  0
    3.0010   25.1560   -1.6010 C   0  0  0  0  0  0  0  0  0  0  0  0
    4.2720   25.1100   -0.7060 C   0  0  0  0  0  0  0  0  0  0  0  0
    3.9640   24.7470    0.7040 C   0  0  0  0  0  0  0  0  0  0  0  0
    3.1060   25.5550    1.4870 C   0  0  0  0  0  0  0  0  0  0  0  0
    2.8540   25.2500    2.8440 C   0  0  0  0  0  0  0  0  0  0  0  0
    2.0190   26.0730    3.6350 C   0  0  0  0  0  0  0  0  0  0  0  0
    1.7900   25.7660    4.9870 C   0  0  0  0  0  0  0  0  0  0  0  0
    2.3890   24.6320    5.5660 C   0  0  0  0  0  0  0  0  0  0  0  0
    3.2200   23.7990    4.7900 C   0  0  0  0  0  0  0  0  0  0  0  0
    3.4600   24.1000    3.4290 C   0  0  0  0  0  0  0  0  0  0  0  0
    4.2950   23.2800    2.6420 C   0  0  0  0  0  0  0  0  0  0  0  0
    4.5430   23.6020    1.2950 C   0  0  0  0  0  0  0  0  0  0  0  0
    2.3120   17.1200   -6.0750 H   0  0  0  0  0  0  0  0  0  0  0  0
    3.6560   18.7790   -5.5030 H   0  0  0  0  0  0  0  0  0  0  0  0
    3.4280   19.7790   -3.0100 H   0  0  0  0  0  0  0  0  0  0  0  0
    3.6780   20.9310   -4.3370 H   0  0  0  0  0  0  0  0  0  0  0  0
    1.3430   21.9260   -3.5420 H   0  0  0  0  0  0  0  0  0  0  0  0
    1.7010   21.0670   -2.0340 H   0  0  0  0  0  0  0  0  0  0  0  0
    3.8620   22.3100   -1.8400 H   0  0  0  0  0  0  0  0  0  0  0  0
    3.5070   23.1660   -3.3470 H   0  0  0  0  0  0  0  0  0  0  0  0
    1.2990   23.9270   -2.1340 H   0  0  0  0  0  0  0  0  0  0  0  0
    2.1180   23.4210   -0.6490 H   0  0  0  0  0  0  0  0  0  0  0  0
    3.2870   25.4590   -2.6120 H   0  0  0  0  0  0  0  0  0  0  0  0
    2.3110   25.9040   -1.2030 H   0  0  0  0  0  0  0  0  0  0  0  0
    4.9800   24.3930   -1.1240 H   0  0  0  0  0  0  0  0  0  0  0  0
    4.7630   26.0870   -0.7360 H   0  0  0  0  0  0  0  0  0  0  0  0
    2.6680   26.3780    1.0670 H   0  0  0  0  0  0  0  0  0  0  0  0
    1.5760   26.9040    3.2350 H   0  0  0  0  0  0  0  0  0  0  0  0
    1.1900   26.3690    5.5580 H   0  0  0  0  0  0  0  0  0  0  0  0
    2.2190   24.4080    6.5530 H   0  0  0  0  0  0  0  0  0  0  0  0
    3.6500   22.9810    5.2290 H   0  0  0  0  0  0  0  0  0  0  0  0
    4.7360   22.4480    3.0450 H   0  0  0  0  0  0  0  0  0  0  0  0
    5.1580   22.9950    0.7480 H   0  0  0  0  0  0  0  0  0  0  0  0
  1 21  1  0  0  0  0
  1  2  1  0  0  0  0
  2 22  1  0  0  0  0
  2  3  1  0  0  0  0
  3  4  2  0  0  0  0
  3  5  1  0  0  0  0
  5 23  1  0  0  0  0
  5 24  1  0  0  0  0
  5  6  1  0  0  0  0
  6 25  1  0  0  0  0
  6 26  1  0  0  0  0
  6  7  1  0  0  0  0
  7 27  1  0  0  0  0
  7 28  1  0  0  0  0
  7  8  1  0  0  0  0
  8 29  1  0  0  0  0
  8 30  1  0  0  0  0
  8  9  1  0  0  0  0
  9 31  1  0  0  0  0
  9 32  1  0  0  0  0
  9 10  1  0  0  0  0
 10 33  1  0  0  0  0
 10 34  1  0  0  0  0
 10 11  1  0  0  0  0
 11 12  2  0  0  0  0
 12 35  1  0  0  0  0
 12 13  1  0  0  0  0
 13 14  1  0  0  0  0
 14 36  1  0  0  0  0
 14 15  2  0  0  0  0
 15 37  1  0  0  0  0
 15 16  1  0  0  0  0
 16 38  1  0  0  0  0
 16 17  2  0  0  0  0
 17 39  1  0  0  0  0
 17 18  1  0  0  0  0
 18 13  2  0  0  0  0
 18 19  1  0  0  0  0
 19 40  1  0  0  0  0
 19 20  2  0  0  0  0
 20 11  1  0  0  0  0
 20 41  1  0  0  0  0
M  END
>  <EXTREG>  (Row23_000)
Row23_000

>  <Similarity>  (Row23_000)
7.8177

>  <RMSD_ISO>  (Row23_000)
0.0000

>  <STRAIN>  (Row23_000)
0.0000

>  <ID>  (Row23_000)
M023

>  <IC50>  (Row23_000)
25.0000

>  <pIC50>  (Row23_000)
7.6021

$$$$
Row24_000
  -MTS-   08231913523D 0   0.00000     0.00000     0

 42 43  0  0  1  0  0  0  0  0999 V2000
    2.1490   18.3540   -6.3550 O   0  0  0  0  0  0  0  0  0  0  0  0
    2.6340   19.2160   -5.5010 N   0  0  0  0  0  0  0  0  0  0  0  0
    1.9080   19.7700   -4.5480 C   0  0  0  0  0  0  0  0  0  0  0  0
    0.7230   19.4790   -4.4370 O   0  0  0  0  0  0  0  0  0  0  0  0
    2.5450   20.7190   -3.6480 C   0  0  0  0  0  0  0  0  0  0  0  0
    3.4860   20.1110   -2.5740 C   0  0  0  0  0  0  0  0  0  0  0  0
    4.4420   21.1650   -1.9530 C   0  0  0  0  0  0  0  0  0  0  0  0
    3.6720   22.3150   -1.2500 C   0  0  0  0  0  0  0  0  0  0  0  0
    4.5800   23.5280   -0.9150 C   0  0  0  0  0  0  0  0  0  0  0  0
    3.7820   24.8300   -0.6160 C   0  0  1  0  0  0  0  0  0  0  0  0
    2.7390   25.0350   -1.5710 O   0  0  0  0  0  0  0  0  0  0  0  0
    3.2080   24.8090    0.7600 C   0  0  0  0  0  0  0  0  0  0  0  0
    4.0500   24.6920    1.8920 C   0  0  0  0  0  0  0  0  0  0  0  0
    3.5140   24.6530    3.1990 C   0  0  0  0  0  0  0  0  0  0  0  0
    4.3570   24.5250    4.3260 C   0  0  0  0  0  0  0  0  0  0  0  0
    3.8090   24.4910    5.6200 C   0  0  0  0  0  0  0  0  0  0  0  0
    2.4170   24.5900    5.8040 C   0  0  0  0  0  0  0  0  0  0  0  0
    1.5650   24.7150    4.6900 C   0  0  0  0  0  0  0  0  0  0  0  0
    2.1010   24.7400    3.3820 C   0  0  0  0  0  0  0  0  0  0  0  0
    1.2600   24.8480    2.2530 C   0  0  0  0  0  0  0  0  0  0  0  0
    1.8070   24.8810    0.9590 C   0  0  0  0  0  0  0  0  0  0  0  0
    2.4620   17.4860   -6.0280 H   0  0  0  0  0  0  0  0  0  0  0  0
    3.5710   19.4610   -5.5720 H   0  0  0  0  0  0  0  0  0  0  0  0
    1.7560   21.2780   -3.1340 H   0  0  0  0  0  0  0  0  0  0  0  0
    3.1200   21.4280   -4.2510 H   0  0  0  0  0  0  0  0  0  0  0  0
    4.0800   19.3120   -3.0290 H   0  0  0  0  0  0  0  0  0  0  0  0
    2.8770   19.6730   -1.7760 H   0  0  0  0  0  0  0  0  0  0  0  0
    5.0690   21.5900   -2.7450 H   0  0  0  0  0  0  0  0  0  0  0  0
    5.0970   20.6730   -1.2270 H   0  0  0  0  0  0  0  0  0  0  0  0
    3.2320   21.9320   -0.3240 H   0  0  0  0  0  0  0  0  0  0  0  0
    2.8530   22.6410   -1.8990 H   0  0  0  0  0  0  0  0  0  0  0  0
    5.2400   23.7130   -1.7700 H   0  0  0  0  0  0  0  0  0  0  0  0
    5.2060   23.2700   -0.0540 H   0  0  0  0  0  0  0  0  0  0  0  0
    4.4660   25.6810   -0.7220 H   0  0  0  0  0  0  0  0  0  0  0  0
    3.1760   24.9970   -2.4470 H   0  0  0  0  0  0  0  0  0  0  0  0
    5.0660   24.6230    1.7610 H   0  0  0  0  0  0  0  0  0  0  0  0
    5.3730   24.4540    4.2130 H   0  0  0  0  0  0  0  0  0  0  0  0
    4.4240   24.4000    6.4310 H   0  0  0  0  0  0  0  0  0  0  0  0
    2.0240   24.5690    6.7480 H   0  0  0  0  0  0  0  0  0  0  0  0
    0.5520   24.7830    4.8410 H   0  0  0  0  0  0  0  0  0  0  0  0
    0.2420   24.9040    2.3620 H   0  0  0  0  0  0  0  0  0  0  0  0
    1.1720   24.9550    0.1580 H   0  0  0  0  0  0  0  0  0  0  0  0
  1 22  1  0  0  0  0
  1  2  1  0  0  0  0
  2 23  1  0  0  0  0
  2  3  1  0  0  0  0
  3  4  2  0  0  0  0
  3  5  1  0  0  0  0
  5 24  1  0  0  0  0
  5 25  1  0  0  0  0
  5  6  1  0  0  0  0
  6 26  1  0  0  0  0
  6 27  1  0  0  0  0
  6  7  1  0  0  0  0
  7 28  1  0  0  0  0
  7 29  1  0  0  0  0
  7  8  1  0  0  0  0
  8 30  1  0  0  0  0
  8 31  1  0  0  0  0
  8  9  1  0  0  0  0
  9 32  1  0  0  0  0
  9 33  1  0  0  0  0
  9 10  1  0  0  0  0
 10 34  1  0  0  0  0
 10 11  1  0  0  0  0
 11 35  1  0  0  0  0
 10 12  1  0  0  0  0
 12 13  2  0  0  0  0
 13 36  1  0  0  0  0
 13 14  1  0  0  0  0
 14 15  1  0  0  0  0
 15 37  1  0  0  0  0
 15 16  2  0  0  0  0
 16 38  1  0  0  0  0
 16 17  1  0  0  0  0
 17 39  1  0  0  0  0
 17 18  2  0  0  0  0
 18 40  1  0  0  0  0
 18 19  1  0  0  0  0
 19 14  2  0  0  0  0
 19 20  1  0  0  0  0
 20 41  1  0  0  0  0
 20 21  2  0  0  0  0
 21 12  1  0  0  0  0
 21 42  1  0  0  0  0
M  END
>  <EXTREG>  (Row24_000)
Row24_000

>  <Similarity>  (Row24_000)
7.7980

>  <RMSD_ISO>  (Row24_000)
0.0000

>  <STRAIN>  (Row24_000)
0.0000

>  <ID>  (Row24_000)
M024

>  <IC50>  (Row24_000)
35.0000

>  <pIC50>  (Row24_000)
7.4559

$$$$
Row25_000
  -MTS-   08231913523D 0   0.00000     0.00000     0

 32 33  0  0  0  0  0  0  0  0999 V2000
    2.2850   18.2050   -6.1490 O   0  0  0  0  0  0  0  0  0  0  0  0
    2.7040   19.1080   -5.2980 N   0  0  0  0  0  0  0  0  0  0  0  0
    1.9170   19.6690   -4.3920 C   0  0  0  0  0  0  0  0  0  0  0  0
    0.7460   19.3000   -4.3530 O   0  0  0  0  0  0  0  0  0  0  0  0
    2.3780   20.6450   -3.4930 C   0  0  0  0  0  0  0  0  0  0  0  0
    3.6600   21.2340   -3.6460 C   0  0  0  0  0  0  0  0  0  0  0  0
    4.1340   22.2070   -2.7450 C   0  0  0  0  0  0  0  0  0  0  0  0
    3.3490   22.6300   -1.6550 C   0  0  0  0  0  0  0  0  0  0  0  0
    2.0710   22.0520   -1.4910 C   0  0  0  0  0  0  0  0  0  0  0  0
    1.5950   21.0800   -2.3900 C   0  0  0  0  0  0  0  0  0  0  0  0
    3.8910   23.5720   -0.8300 N   0  0  0  0  0  0  0  0  0  0  0  0
    3.1300   24.9510   -0.2260 S   0  0  0  0  0  0  0  0  0  0  0  0
    1.8680   25.3250   -1.1200 O   0  0  0  0  0  0  0  0  0  0  0  0
    4.1630   26.1320   -0.4870 O   0  0  0  0  0  0  0  0  0  0  0  0
    2.8260   24.9140    1.4900 C   0  0  0  0  0  0  0  0  0  0  0  0
    3.5790   24.0580    2.3220 C   0  0  0  0  0  0  0  0  0  0  0  0
    3.3450   24.0340    3.7090 C   0  0  0  0  0  0  0  0  0  0  0  0
    2.3490   24.8580    4.2730 C   0  0  0  0  0  0  0  0  0  0  0  0
    1.5860   25.7040    3.4450 C   0  0  0  0  0  0  0  0  0  0  0  0
    1.8230   25.7310    2.0590 C   0  0  0  0  0  0  0  0  0  0  0  0
    2.6810   17.3630   -5.8270 H   0  0  0  0  0  0  0  0  0  0  0  0
    3.6380   19.3620   -5.3330 H   0  0  0  0  0  0  0  0  0  0  0  0
    4.2680   20.9700   -4.4280 H   0  0  0  0  0  0  0  0  0  0  0  0
    5.0610   22.6070   -2.8940 H   0  0  0  0  0  0  0  0  0  0  0  0
    1.4660   22.3310   -0.7130 H   0  0  0  0  0  0  0  0  0  0  0  0
    0.6670   20.6890   -2.2190 H   0  0  0  0  0  0  0  0  0  0  0  0
    4.7950   23.4100   -0.5170 H   0  0  0  0  0  0  0  0  0  0  0  0
    4.3050   23.4540    1.9250 H   0  0  0  0  0  0  0  0  0  0  0  0
    3.9000   23.4210    4.3110 H   0  0  0  0  0  0  0  0  0  0  0  0
    2.1850   24.8530    5.2910 H   0  0  0  0  0  0  0  0  0  0  0  0
    0.8620   26.3020    3.8550 H   0  0  0  0  0  0  0  0  0  0  0  0
    1.2640   26.3540    1.4720 H   0  0  0  0  0  0  0  0  0  0  0  0
  1 21  1  0  0  0  0
  1  2  1  0  0  0  0
  2 22  1  0  0  0  0
  2  3  1  0  0  0  0
  3  4  2  0  0  0  0
  3  5  1  0  0  0  0
  5  6  2  0  0  0  0
  6 23  1  0  0  0  0
  6  7  1  0  0  0  0
  7 24  1  0  0  0  0
  7  8  2  0  0  0  0
  8  9  1  0  0  0  0
  9 25  1  0  0  0  0
  9 10  2  0  0  0  0
 10  5  1  0  0  0  0
 10 26  1  0  0  0  0
  8 11  1  0  0  0  0
 11 27  1  0  0  0  0
 11 12  1  0  0  0  0
 12 13  2  0  0  0  0
 12 14  2  0  0  0  0
 12 15  1  0  0  0  0
 15 16  2  0  0  0  0
 16 28  1  0  0  0  0
 16 17  1  0  0  0  0
 17 29  1  0  0  0  0
 17 18  2  0  0  0  0
 18 30  1  0  0  0  0
 18 19  1  0  0  0  0
 19 31  1  0  0  0  0
 19 20  2  0  0  0  0
 20 15  1  0  0  0  0
 20 32  1  0  0  0  0
M  END
>  <EXTREG>  (Row25_000)
Row25_000

>  <Similarity>  (Row25_000)
7.1345

>  <RMSD_ISO>  (Row25_000)
0.0000

>  <STRAIN>  (Row25_000)
0.0000

>  <ID>  (Row25_000)
M025

>  <IC50>  (Row25_000)
900.0000

>  <pIC50>  (Row25_000)
6.0458

$$$$
Row26_000
  -MTS-   08231913523D 0   0.00000     0.00000     0

 35 36  0  0  0  0  0  0  0  0999 V2000
    2.0500   19.0140   -6.2700 O   0  0  0  0  0  0  0  0  0  0  0  0
    2.7380   19.0400   -5.1600 N   0  0  0  0  0  0  0  0  0  0  0  0
    2.1740   19.1400   -3.9690 C   0  0  0  0  0  0  0  0  0  0  0  0
    0.9530   19.1970   -3.8800 O   0  0  0  0  0  0  0  0  0  0  0  0
    3.0310   19.1650   -2.7920 C   0  0  0  0  0  0  0  0  0  0  0  0
    3.3770   20.5190   -2.2680 C   0  0  0  0  0  0  0  0  0  0  0  0
    4.1340   21.4340   -3.0330 C   0  0  0  0  0  0  0  0  0  0  0  0
    4.4550   22.7060   -2.5230 C   0  0  0  0  0  0  0  0  0  0  0  0
    4.0270   23.1010   -1.2380 C   0  0  0  0  0  0  0  0  0  0  0  0
    3.2550   22.1910   -0.4770 C   0  0  0  0  0  0  0  0  0  0  0  0
    2.9330   20.9200   -0.9870 C   0  0  0  0  0  0  0  0  0  0  0  0
    4.3890   24.3470   -0.8200 N   0  0  0  0  0  0  0  0  0  0  0  0
    3.3720   25.5160   -0.1530 S   0  0  0  0  0  0  0  0  0  0  0  0
    2.0510   25.6870   -1.0230 O   0  0  0  0  0  0  0  0  0  0  0  0
    4.1580   26.8890   -0.3240 O   0  0  0  0  0  0  0  0  0  0  0  0
    3.0990   25.3110    1.5540 C   0  0  0  0  0  0  0  0  0  0  0  0
    4.0140   24.5630    2.3250 C   0  0  0  0  0  0  0  0  0  0  0  0
    3.7930   24.3780    3.7030 C   0  0  0  0  0  0  0  0  0  0  0  0
    2.6560   24.9360    4.3170 C   0  0  0  0  0  0  0  0  0  0  0  0
    1.7380   25.6800    3.5510 C   0  0  0  0  0  0  0  0  0  0  0  0
    1.9590   25.8660    2.1740 C   0  0  0  0  0  0  0  0  0  0  0  0
    2.2250   18.1270   -6.6490 H   0  0  0  0  0  0  0  0  0  0  0  0
    3.7050   18.9870   -5.2160 H   0  0  0  0  0  0  0  0  0  0  0  0
    2.5340   18.5760   -2.0160 H   0  0  0  0  0  0  0  0  0  0  0  0
    3.9670   18.6530   -3.0300 H   0  0  0  0  0  0  0  0  0  0  0  0
    4.4650   21.1800   -3.9670 H   0  0  0  0  0  0  0  0  0  0  0  0
    5.0120   23.3440   -3.0990 H   0  0  0  0  0  0  0  0  0  0  0  0
    2.9240   22.4360    0.4570 H   0  0  0  0  0  0  0  0  0  0  0  0
    2.3780   20.2820   -0.4130 H   0  0  0  0  0  0  0  0  0  0  0  0
    5.3270   24.5820   -0.8990 H   0  0  0  0  0  0  0  0  0  0  0  0
    4.8420   24.1490    1.8900 H   0  0  0  0  0  0  0  0  0  0  0  0
    4.4590   23.8360    4.2580 H   0  0  0  0  0  0  0  0  0  0  0  0
    2.4940   24.7990    5.3170 H   0  0  0  0  0  0  0  0  0  0  0  0
    0.9100   26.0820    3.9960 H   0  0  0  0  0  0  0  0  0  0  0  0
    1.2810   26.4040    1.6290 H   0  0  0  0  0  0  0  0  0  0  0  0
  1 22  1  0  0  0  0
  1  2  1  0  0  0  0
  2 23  1  0  0  0  0
  2  3  1  0  0  0  0
  3  4  2  0  0  0  0
  3  5  1  0  0  0  0
  5 24  1  0  0  0  0
  5 25  1  0  0  0  0
  5  6  1  0  0  0  0
  6  7  2  0  0  0  0
  7 26  1  0  0  0  0
  7  8  1  0  0  0  0
  8 27  1  0  0  0  0
  8  9  2  0  0  0  0
  9 10  1  0  0  0  0
 10 28  1  0  0  0  0
 10 11  2  0  0  0  0
 11  6  1  0  0  0  0
 11 29  1  0  0  0  0
  9 12  1  0  0  0  0
 12 30  1  0  0  0  0
 12 13  1  0  0  0  0
 13 14  2  0  0  0  0
 13 15  2  0  0  0  0
 13 16  1  0  0  0  0
 16 17  2  0  0  0  0
 17 31  1  0  0  0  0
 17 18  1  0  0  0  0
 18 32  1  0  0  0  0
 18 19  2  0  0  0  0
 19 33  1  0  0  0  0
 19 20  1  0  0  0  0
 20 34  1  0  0  0  0
 20 21  2  0  0  0  0
 21 16  1  0  0  0  0
 21 35  1  0  0  0  0
M  END
>  <EXTREG>  (Row26_000)
Row26_000

>  <Similarity>  (Row26_000)
7.0480

>  <RMSD_ISO>  (Row26_000)
0.0000

>  <STRAIN>  (Row26_000)
0.0000

>  <ID>  (Row26_000)
M026

>  <IC50>  (Row26_000)
1000.0000

>  <pIC50>  (Row26_000)
6.0000

$$$$
Row27_000
  -MTS-   08231913523D 0   0.00000     0.00000     0

 38 39  0  0  0  0  0  0  0  0999 V2000
    2.3680   18.4260   -6.1170 O   0  0  0  0  0  0  0  0  0  0  0  0
    2.7530   19.4190   -5.3610 N   0  0  0  0  0  0  0  0  0  0  0  0
    2.0250   19.8870   -4.3660 C   0  0  0  0  0  0  0  0  0  0  0  0
    0.9400   19.3790   -4.1140 O   0  0  0  0  0  0  0  0  0  0  0  0
    2.5410   21.0010   -3.5870 C   0  0  0  0  0  0  0  0  0  0  0  0
    3.7790   20.6980   -2.6940 C   0  0  0  0  0  0  0  0  0  0  0  0
    4.1330   21.8300   -1.7940 C   0  0  0  0  0  0  0  0  0  0  0  0
    4.8680   22.9430   -2.2670 C   0  0  0  0  0  0  0  0  0  0  0  0
    5.2030   24.0060   -1.4070 C   0  0  0  0  0  0  0  0  0  0  0  0
    4.8310   23.9660   -0.0460 C   0  0  0  0  0  0  0  0  0  0  0  0
    4.0740   22.8720    0.4280 C   0  0  0  0  0  0  0  0  0  0  0  0
    3.7230   21.8200   -0.4390 C   0  0  0  0  0  0  0  0  0  0  0  0
    5.2010   24.9910    0.7600 N   0  0  0  0  0  0  0  0  0  0  0  0
    4.0300   25.9990    1.4430 S   0  0  0  0  0  0  0  0  0  0  0  0
    2.8820   26.3740    0.4050 O   0  0  0  0  0  0  0  0  0  0  0  0
    4.7610   27.3770    1.7540 O   0  0  0  0  0  0  0  0  0  0  0  0
    3.4000   25.3160    2.9190 C   0  0  0  0  0  0  0  0  0  0  0  0
    2.0650   25.5710    3.3130 C   0  0  0  0  0  0  0  0  0  0  0  0
    1.5720   25.0650    4.5350 C   0  0  0  0  0  0  0  0  0  0  0  0
    2.4140   24.3030    5.3690 C   0  0  0  0  0  0  0  0  0  0  0  0
    3.7470   24.0550    4.9840 C   0  0  0  0  0  0  0  0  0  0  0  0
    4.2410   24.5610    3.7650 C   0  0  0  0  0  0  0  0  0  0  0  0
    2.8420   17.6460   -5.7640 H   0  0  0  0  0  0  0  0  0  0  0  0
    3.6140   19.8310   -5.5400 H   0  0  0  0  0  0  0  0  0  0  0  0
    2.7980   21.8010   -4.2840 H   0  0  0  0  0  0  0  0  0  0  0  0
    1.7360   21.3640   -2.9470 H   0  0  0  0  0  0  0  0  0  0  0  0
    3.5640   19.8000   -2.1100 H   0  0  0  0  0  0  0  0  0  0  0  0
    4.6410   20.4740   -3.3260 H   0  0  0  0  0  0  0  0  0  0  0  0
    5.1690   22.9890   -3.2450 H   0  0  0  0  0  0  0  0  0  0  0  0
    5.7410   24.7960   -1.7730 H   0  0  0  0  0  0  0  0  0  0  0  0
    3.7550   22.8440    1.3980 H   0  0  0  0  0  0  0  0  0  0  0  0
    3.1650   21.0440   -0.0730 H   0  0  0  0  0  0  0  0  0  0  0  0
    5.9950   24.8470    1.3070 H   0  0  0  0  0  0  0  0  0  0  0  0
    1.4510   26.1340    2.7210 H   0  0  0  0  0  0  0  0  0  0  0  0
    0.6070   25.2570    4.8220 H   0  0  0  0  0  0  0  0  0  0  0  0
    2.0600   23.9360    6.2570 H   0  0  0  0  0  0  0  0  0  0  0  0
    4.3570   23.5080    5.5950 H   0  0  0  0  0  0  0  0  0  0  0  0
    5.2140   24.3790    3.5030 H   0  0  0  0  0  0  0  0  0  0  0  0
  1 23  1  0  0  0  0
  1  2  1  0  0  0  0
  2 24  1  0  0  0  0
  2  3  1  0  0  0  0
  3  4  2  0  0  0  0
  3  5  1  0  0  0  0
  5 25  1  0  0  0  0
  5 26  1  0  0  0  0
  5  6  1  0  0  0  0
  6 27  1  0  0  0  0
  6 28  1  0  0  0  0
  6  7  1  0  0  0  0
  7  8  2  0  0  0  0
  8 29  1  0  0  0  0
  8  9  1  0  0  0  0
  9 30  1  0  0  0  0
  9 10  2  0  0  0  0
 10 11  1  0  0  0  0
 11 31  1  0  0  0  0
 11 12  2  0  0  0  0
 12  7  1  0  0  0  0
 12 32  1  0  0  0  0
 10 13  1  0  0  0  0
 13 33  1  0  0  0  0
 13 14  1  0  0  0  0
 14 15  2  0  0  0  0
 14 16  2  0  0  0  0
 14 17  1  0  0  0  0
 17 18  2  0  0  0  0
 18 34  1  0  0  0  0
 18 19  1  0  0  0  0
 19 35  1  0  0  0  0
 19 20  2  0  0  0  0
 20 36  1  0  0  0  0
 20 21  1  0  0  0  0
 21 37  1  0  0  0  0
 21 22  2  0  0  0  0
 22 17  1  0  0  0  0
 22 38  1  0  0  0  0
M  END
>  <EXTREG>  (Row27_000)
Row27_000

>  <Similarity>  (Row27_000)
7.1403

>  <RMSD_ISO>  (Row27_000)
0.0000

>  <STRAIN>  (Row27_000)
0.0000

>  <ID>  (Row27_000)
M027

>  <IC50>  (Row27_000)
100.0000

>  <pIC50>  (Row27_000)
7.0000

$$$$
Row28_000
  -MTS-   08231913523D 0   0.00000     0.00000     0

 41 42  0  0  0  0  0  0  0  0999 V2000
    2.1550   18.2330   -6.1930 O   0  0  0  0  0  0  0  0  0  0  0  0
    2.6750   19.1120   -5.3810 N   0  0  0  0  0  0  0  0  0  0  0  0
    1.9550   19.8000   -4.5130 C   0  0  0  0  0  0  0  0  0  0  0  0
    0.7450   19.6200   -4.4490 O   0  0  0  0  0  0  0  0  0  0  0  0
    2.6260   20.7620   -3.6560 C   0  0  0  0  0  0  0  0  0  0  0  0
    3.5360   20.1570   -2.5490 C   0  0  0  0  0  0  0  0  0  0  0  0
    4.9070   20.8730   -2.4370 C   0  0  0  0  0  0  0  0  0  0  0  0
    4.8150   22.1780   -1.7260 C   0  0  0  0  0  0  0  0  0  0  0  0
    4.3240   22.2570   -0.4040 C   0  0  0  0  0  0  0  0  0  0  0  0
    4.2290   23.4960    0.2590 C   0  0  0  0  0  0  0  0  0  0  0  0
    4.6020   24.6880   -0.3990 C   0  0  0  0  0  0  0  0  0  0  0  0
    5.1220   24.6130   -1.7070 C   0  0  0  0  0  0  0  0  0  0  0  0
    5.2300   23.3730   -2.3630 C   0  0  0  0  0  0  0  0  0  0  0  0
    4.4710   25.8620    0.2680 N   0  0  0  0  0  0  0  0  0  0  0  0
    2.9430   26.5370    0.5050 S   0  0  0  0  0  0  0  0  0  0  0  0
    1.8500   25.8820   -0.4490 O   0  0  0  0  0  0  0  0  0  0  0  0
    3.0390   28.0550    0.0360 O   0  0  0  0  0  0  0  0  0  0  0  0
    2.4910   26.4610    2.1860 C   0  0  0  0  0  0  0  0  0  0  0  0
    3.1550   27.2600    3.1410 C   0  0  0  0  0  0  0  0  0  0  0  0
    2.8350   27.1480    4.5080 C   0  0  0  0  0  0  0  0  0  0  0  0
    1.8540   26.2300    4.9290 C   0  0  0  0  0  0  0  0  0  0  0  0
    1.1940   25.4240    3.9830 C   0  0  0  0  0  0  0  0  0  0  0  0
    1.5110   25.5390    2.6160 C   0  0  0  0  0  0  0  0  0  0  0  0
    2.4870   17.3690   -5.8660 H   0  0  0  0  0  0  0  0  0  0  0  0
    3.6330   19.2650   -5.4180 H   0  0  0  0  0  0  0  0  0  0  0  0
    3.2350   21.4120   -4.2880 H   0  0  0  0  0  0  0  0  0  0  0  0
    1.8630   21.3790   -3.1810 H   0  0  0  0  0  0  0  0  0  0  0  0
    3.0140   20.2230   -1.5920 H   0  0  0  0  0  0  0  0  0  0  0  0
    3.7050   19.1000   -2.7670 H   0  0  0  0  0  0  0  0  0  0  0  0
    5.6020   20.2060   -1.9230 H   0  0  0  0  0  0  0  0  0  0  0  0
    5.3110   21.0450   -3.4370 H   0  0  0  0  0  0  0  0  0  0  0  0
    4.0250   21.4120    0.0900 H   0  0  0  0  0  0  0  0  0  0  0  0
    3.8570   23.5250    1.2120 H   0  0  0  0  0  0  0  0  0  0  0  0
    5.4360   25.4600   -2.1880 H   0  0  0  0  0  0  0  0  0  0  0  0
    5.6150   23.3490   -3.3090 H   0  0  0  0  0  0  0  0  0  0  0  0
    5.1060   26.0140    0.9850 H   0  0  0  0  0  0  0  0  0  0  0  0
    3.8800   27.9200    2.8510 H   0  0  0  0  0  0  0  0  0  0  0  0
    3.3210   27.7290    5.1940 H   0  0  0  0  0  0  0  0  0  0  0  0
    1.6270   26.1440    5.9230 H   0  0  0  0  0  0  0  0  0  0  0  0
    0.4890   24.7510    4.2890 H   0  0  0  0  0  0  0  0  0  0  0  0
    1.0330   24.9390    1.9400 H   0  0  0  0  0  0  0  0  0  0  0  0
  1 24  1  0  0  0  0
  1  2  1  0  0  0  0
  2 25  1  0  0  0  0
  2  3  1  0  0  0  0
  3  4  2  0  0  0  0
  3  5  1  0  0  0  0
  5 26  1  0  0  0  0
  5 27  1  0  0  0  0
  5  6  1  0  0  0  0
  6 28  1  0  0  0  0
  6 29  1  0  0  0  0
  6  7  1  0  0  0  0
  7 30  1  0  0  0  0
  7 31  1  0  0  0  0
  7  8  1  0  0  0  0
  8  9  2  0  0  0  0
  9 32  1  0  0  0  0
  9 10  1  0  0  0  0
 10 33  1  0  0  0  0
 10 11  2  0  0  0  0
 11 12  1  0  0  0  0
 12 34  1  0  0  0  0
 12 13  2  0  0  0  0
 13  8  1  0  0  0  0
 13 35  1  0  0  0  0
 11 14  1  0  0  0  0
 14 36  1  0  0  0  0
 14 15  1  0  0  0  0
 15 16  2  0  0  0  0
 15 17  2  0  0  0  0
 15 18  1  0  0  0  0
 18 19  2  0  0  0  0
 19 37  1  0  0  0  0
 19 20  1  0  0  0  0
 20 38  1  0  0  0  0
 20 21  2  0  0  0  0
 21 39  1  0  0  0  0
 21 22  1  0  0  0  0
 22 40  1  0  0  0  0
 22 23  2  0  0  0  0
 23 18  1  0  0  0  0
 23 41  1  0  0  0  0
M  END
>  <EXTREG>  (Row28_000)
Row28_000

>  <Similarity>  (Row28_000)
7.3625

>  <RMSD_ISO>  (Row28_000)
0.0000

>  <STRAIN>  (Row28_000)
0.0000

>  <ID>  (Row28_000)
M028

>  <IC50>  (Row28_000)
1000.0000

>  <pIC50>  (Row28_000)
6.0000

$$$$
Row29_000
  -MTS-   08231913523D 0   0.00000     0.00000     0

 36 37  0  0  0  0  0  0  0  0999 V2000
    2.4570   18.1450   -6.4100 O   0  0  0  0  0  0  0  0  0  0  0  0
    2.7160   18.9920   -5.4470 N   0  0  0  0  0  0  0  0  0  0  0  0
    1.7870   19.4300   -4.6100 C   0  0  0  0  0  0  0  0  0  0  0  0
    0.6400   19.0070   -4.7240 O   0  0  0  0  0  0  0  0  0  0  0  0
    2.1310   20.3200   -3.6340 C   0  0  0  0  0  0  0  0  0  0  0  0
    2.8910   21.4190   -3.8190 C   0  0  0  0  0  0  0  0  0  0  0  0
    3.2500   22.3750   -2.8530 C   0  0  0  0  0  0  0  0  0  0  0  0
    3.8170   21.9240   -1.6300 C   0  0  0  0  0  0  0  0  0  0  0  0
    4.1900   22.8270   -0.6180 C   0  0  0  0  0  0  0  0  0  0  0  0
    4.0130   24.2140   -0.8000 C   0  0  0  0  0  0  0  0  0  0  0  0
    3.4850   24.6830   -2.0180 C   0  0  0  0  0  0  0  0  0  0  0  0
    3.1050   23.7780   -3.0270 C   0  0  0  0  0  0  0  0  0  0  0  0
    4.3730   25.1080    0.1530 N   0  0  0  0  0  0  0  0  0  0  0  0
    3.1940   25.9180    1.0470 S   0  0  0  0  0  0  0  0  0  0  0  0
    1.7970   25.7730    0.2950 O   0  0  0  0  0  0  0  0  0  0  0  0
    3.5660   27.4670    0.9960 O   0  0  0  0  0  0  0  0  0  0  0  0
    3.0740   25.4310    2.7180 C   0  0  0  0  0  0  0  0  0  0  0  0
    3.7700   24.2990    3.1930 C   0  0  0  0  0  0  0  0  0  0  0  0
    3.6310   23.8980    4.5360 C   0  0  0  0  0  0  0  0  0  0  0  0
    2.7940   24.6180    5.4080 C   0  0  0  0  0  0  0  0  0  0  0  0
    2.0930   25.7450    4.9350 C   0  0  0  0  0  0  0  0  0  0  0  0
    2.2310   26.1480    3.5950 C   0  0  0  0  0  0  0  0  0  0  0  0
    2.9580   17.3390   -6.1700 H   0  0  0  0  0  0  0  0  0  0  0  0
    3.6290   19.3180   -5.3510 H   0  0  0  0  0  0  0  0  0  0  0  0
    1.8040   20.1200   -2.7170 H   0  0  0  0  0  0  0  0  0  0  0  0
    3.2620   21.5550   -4.7330 H   0  0  0  0  0  0  0  0  0  0  0  0
    3.9620   20.9220   -1.4600 H   0  0  0  0  0  0  0  0  0  0  0  0
    4.6060   22.4690    0.2440 H   0  0  0  0  0  0  0  0  0  0  0  0
    3.3640   25.6840   -2.1760 H   0  0  0  0  0  0  0  0  0  0  0  0
    2.7360   24.1690   -3.8960 H   0  0  0  0  0  0  0  0  0  0  0  0
    5.1900   25.6070   -0.0020 H   0  0  0  0  0  0  0  0  0  0  0  0
    4.3720   23.7580    2.5710 H   0  0  0  0  0  0  0  0  0  0  0  0
    4.1310   23.0740    4.8790 H   0  0  0  0  0  0  0  0  0  0  0  0
    2.6920   24.3200    6.3790 H   0  0  0  0  0  0  0  0  0  0  0  0
    1.4750   26.2660    5.5630 H   0  0  0  0  0  0  0  0  0  0  0  0
    1.7040   26.9550    3.2610 H   0  0  0  0  0  0  0  0  0  0  0  0
  1 23  1  0  0  0  0
  1  2  1  0  0  0  0
  2 24  1  0  0  0  0
  2  3  1  0  0  0  0
  3  4  2  0  0  0  0
  3  5  1  0  0  0  0
  5 25  1  0  0  0  0
  5  6  2  0  0  0  0
  6 26  1  0  0  0  0
  6  7  1  0  0  0  0
  7  8  2  0  0  0  0
  8 27  1  0  0  0  0
  8  9  1  0  0  0  0
  9 28  1  0  0  0  0
  9 10  2  0  0  0  0
 10 11  1  0  0  0  0
 11 29  1  0  0  0  0
 11 12  2  0  0  0  0
 12  7  1  0  0  0  0
 12 30  1  0  0  0  0
 10 13  1  0  0  0  0
 13 31  1  0  0  0  0
 13 14  1  0  0  0  0
 14 15  2  0  0  0  0
 14 16  2  0  0  0  0
 14 17  1  0  0  0  0
 17 18  2  0  0  0  0
 18 32  1  0  0  0  0
 18 19  1  0  0  0  0
 19 33  1  0  0  0  0
 19 20  2  0  0  0  0
 20 34  1  0  0  0  0
 20 21  1  0  0  0  0
 21 35  1  0  0  0  0
 21 22  2  0  0  0  0
 22 17  1  0  0  0  0
 22 36  1  0  0  0  0
M  END
>  <EXTREG>  (Row29_000)
Row29_000

>  <Similarity>  (Row29_000)
7.2439

>  <RMSD_ISO>  (Row29_000)
0.0000

>  <STRAIN>  (Row29_000)
0.0000

>  <ID>  (Row29_000)
M029

>  <IC50>  (Row29_000)
200.0000

>  <pIC50>  (Row29_000)
6.6990

$$$$
Row30_000
  -MTS-   08231913523D 0   0.00000     0.00000     0

 39 40  0  0  0  0  0  0  0  0999 V2000
    2.2520   18.2530   -6.2230 O   0  0  0  0  0  0  0  0  0  0  0  0
    2.6570   19.2130   -5.4360 N   0  0  0  0  0  0  0  0  0  0  0  0
    1.8980   19.7110   -4.4790 C   0  0  0  0  0  0  0  0  0  0  0  0
    0.7540   19.3130   -4.2990 O   0  0  0  0  0  0  0  0  0  0  0  0
    2.3690   20.7150   -3.7150 C   0  0  0  0  0  0  0  0  0  0  0  0
    3.4090   20.6280   -2.8510 C   0  0  0  0  0  0  0  0  0  0  0  0
    4.1490   19.3740   -2.6760 C   0  0  0  0  0  0  0  0  0  0  0  0
    3.7900   21.7550   -2.1050 C   0  0  0  0  0  0  0  0  0  0  0  0
    3.4220   21.8800   -0.7440 C   0  0  0  0  0  0  0  0  0  0  0  0
    3.8070   23.0010    0.0140 C   0  0  0  0  0  0  0  0  0  0  0  0
    4.5740   24.0380   -0.5670 C   0  0  0  0  0  0  0  0  0  0  0  0
    4.9310   23.9250   -1.9260 C   0  0  0  0  0  0  0  0  0  0  0  0
    4.5480   22.8030   -2.6840 C   0  0  0  0  0  0  0  0  0  0  0  0
    4.9960   25.1520    0.0950 N   0  0  0  0  0  0  0  0  0  0  0  0
    4.0180   26.2740    0.8880 S   0  0  0  0  0  0  0  0  0  0  0  0
    2.8520   26.7790   -0.0700 O   0  0  0  0  0  0  0  0  0  0  0  0
    4.9510   27.5420    1.1100 O   0  0  0  0  0  0  0  0  0  0  0  0
    3.5060   25.7770    2.4750 C   0  0  0  0  0  0  0  0  0  0  0  0
    4.3930   25.0660    3.3110 C   0  0  0  0  0  0  0  0  0  0  0  0
    3.9870   24.6610    4.5960 C   0  0  0  0  0  0  0  0  0  0  0  0
    2.6910   24.9620    5.0530 C   0  0  0  0  0  0  0  0  0  0  0  0
    1.8010   25.6710    4.2240 C   0  0  0  0  0  0  0  0  0  0  0  0
    2.2070   26.0790    2.9400 C   0  0  0  0  0  0  0  0  0  0  0  0
    2.6400   17.4370   -5.8410 H   0  0  0  0  0  0  0  0  0  0  0  0
    3.5540   19.5670   -5.5580 H   0  0  0  0  0  0  0  0  0  0  0  0
    1.8840   21.5800   -3.8040 H   0  0  0  0  0  0  0  0  0  0  0  0
    3.4910   18.6060   -2.2660 H   0  0  0  0  0  0  0  0  0  0  0  0
    4.5360   19.0330   -3.6380 H   0  0  0  0  0  0  0  0  0  0  0  0
    5.0050   19.4760   -2.0040 H   0  0  0  0  0  0  0  0  0  0  0  0
    2.8560   21.1570   -0.2910 H   0  0  0  0  0  0  0  0  0  0  0  0
    3.5210   23.0490    0.9940 H   0  0  0  0  0  0  0  0  0  0  0  0
    5.4810   24.6610   -2.3780 H   0  0  0  0  0  0  0  0  0  0  0  0
    4.8420   22.7510   -3.6650 H   0  0  0  0  0  0  0  0  0  0  0  0
    5.9540   25.2960    0.1510 H   0  0  0  0  0  0  0  0  0  0  0  0
    5.3390   24.8430    2.9910 H   0  0  0  0  0  0  0  0  0  0  0  0
    4.6350   24.1490    5.2000 H   0  0  0  0  0  0  0  0  0  0  0  0
    2.3960   24.6700    5.9880 H   0  0  0  0  0  0  0  0  0  0  0  0
    0.8610   25.8930    4.5590 H   0  0  0  0  0  0  0  0  0  0  0  0
    1.5510   26.5940    2.3500 H   0  0  0  0  0  0  0  0  0  0  0  0
  1 24  1  0  0  0  0
  1  2  1  0  0  0  0
  2 25  1  0  0  0  0
  2  3  1  0  0  0  0
  3  4  2  0  0  0  0
  3  5  1  0  0  0  0
  5 26  1  0  0  0  0
  5  6  2  0  0  0  0
  6  7  1  0  0  0  0
  7 27  1  0  0  0  0
  7 28  1  0  0  0  0
  7 29  1  0  0  0  0
  6  8  1  0  0  0  0
  8  9  2  0  0  0  0
  9 30  1  0  0  0  0
  9 10  1  0  0  0  0
 10 31  1  0  0  0  0
 10 11  2  0  0  0  0
 11 12  1  0  0  0  0
 12 32  1  0  0  0  0
 12 13  2  0  0  0  0
 13  8  1  0  0  0  0
 13 33  1  0  0  0  0
 11 14  1  0  0  0  0
 14 34  1  0  0  0  0
 14 15  1  0  0  0  0
 15 16  2  0  0  0  0
 15 17  2  0  0  0  0
 15 18  1  0  0  0  0
 18 19  2  0  0  0  0
 19 35  1  0  0  0  0
 19 20  1  0  0  0  0
 20 36  1  0  0  0  0
 20 21  2  0  0  0  0
 21 37  1  0  0  0  0
 21 22  1  0  0  0  0
 22 38  1  0  0  0  0
 22 23  2  0  0  0  0
 23 18  1  0  0  0  0
 23 39  1  0  0  0  0
M  END
>  <EXTREG>  (Row30_000)
Row30_000

>  <Similarity>  (Row30_000)
7.3211

>  <RMSD_ISO>  (Row30_000)
0.0000

>  <STRAIN>  (Row30_000)
0.0000

>  <ID>  (Row30_000)
M030

>  <IC50>  (Row30_000)
2000.0000

>  <pIC50>  (Row30_000)
5.6990

$$$$
Row31_000
  -MTS-   08231913523D 0   0.00000     0.00000     0

 41 42  0  0  1  0  0  0  0  0999 V2000
    2.3110   18.1670   -6.0760 O   0  0  0  0  0  0  0  0  0  0  0  0
    2.7290   19.2080   -5.4050 N   0  0  0  0  0  0  0  0  0  0  0  0
    1.9820   19.8380   -4.5160 C   0  0  0  0  0  0  0  0  0  0  0  0
    0.8360   19.4550   -4.3100 O   0  0  0  0  0  0  0  0  0  0  0  0
    2.5370   20.9990   -3.8360 C   0  0  0  0  0  0  0  0  0  0  0  0
    3.5240   20.7400   -2.6470 C   0  0  1  0  0  0  0  0  0  0  0  0
    4.8810   20.1330   -3.1070 C   0  0  0  0  0  0  0  0  0  0  0  0
    3.7530   21.9860   -1.8400 C   0  0  0  0  0  0  0  0  0  0  0  0
    3.3230   22.0650   -0.4940 C   0  0  0  0  0  0  0  0  0  0  0  0
    3.5340   23.2290    0.2680 C   0  0  0  0  0  0  0  0  0  0  0  0
    4.1760   24.3540   -0.2890 C   0  0  0  0  0  0  0  0  0  0  0  0
    4.6100   24.2800   -1.6330 C   0  0  0  0  0  0  0  0  0  0  0  0
    4.4020   23.1160   -2.3940 C   0  0  0  0  0  0  0  0  0  0  0  0
    4.3350   25.4400    0.5180 N   0  0  0  0  0  0  0  0  0  0  0  0
    3.1150   26.2730    1.3320 S   0  0  0  0  0  0  0  0  0  0  0  0
    1.7800   26.3320    0.4670 O   0  0  0  0  0  0  0  0  0  0  0  0
    3.6240   27.7770    1.4160 O   0  0  0  0  0  0  0  0  0  0  0  0
    2.8910   25.7380    2.9740 C   0  0  0  0  0  0  0  0  0  0  0  0
    3.9130   25.0120    3.6220 C   0  0  0  0  0  0  0  0  0  0  0  0
    3.7320   24.5580    4.9420 C   0  0  0  0  0  0  0  0  0  0  0  0
    2.5280   24.8230    5.6210 C   0  0  0  0  0  0  0  0  0  0  0  0
    1.5040   25.5440    4.9790 C   0  0  0  0  0  0  0  0  0  0  0  0
    1.6850   26.0000    3.6600 C   0  0  0  0  0  0  0  0  0  0  0  0
    2.7470   17.4010   -5.6460 H   0  0  0  0  0  0  0  0  0  0  0  0
    3.6300   19.5290   -5.5690 H   0  0  0  0  0  0  0  0  0  0  0  0
    1.6870   21.5760   -3.4590 H   0  0  0  0  0  0  0  0  0  0  0  0
    3.0440   21.6150   -4.5850 H   0  0  0  0  0  0  0  0  0  0  0  0
    3.0550   19.9890   -2.0020 H   0  0  0  0  0  0  0  0  0  0  0  0
    4.7260   19.1730   -3.6040 H   0  0  0  0  0  0  0  0  0  0  0  0
    5.5270   19.9620   -2.2420 H   0  0  0  0  0  0  0  0  0  0  0  0
    5.3980   20.7970   -3.8020 H   0  0  0  0  0  0  0  0  0  0  0  0
    2.8540   21.2720   -0.0520 H   0  0  0  0  0  0  0  0  0  0  0  0
    3.2120   23.2490    1.2400 H   0  0  0  0  0  0  0  0  0  0  0  0
    5.0830   25.0700   -2.0730 H   0  0  0  0  0  0  0  0  0  0  0  0
    4.7310   23.1010   -3.3620 H   0  0  0  0  0  0  0  0  0  0  0  0
    5.2430   25.7580    0.6550 H   0  0  0  0  0  0  0  0  0  0  0  0
    4.7910   24.8080    3.1380 H   0  0  0  0  0  0  0  0  0  0  0  0
    4.4750   24.0320    5.4080 H   0  0  0  0  0  0  0  0  0  0  0  0
    2.3960   24.4910    6.5790 H   0  0  0  0  0  0  0  0  0  0  0  0
    0.6280   25.7360    5.4710 H   0  0  0  0  0  0  0  0  0  0  0  0
    0.9310   26.5200    3.2050 H   0  0  0  0  0  0  0  0  0  0  0  0
  1 24  1  0  0  0  0
  1  2  1  0  0  0  0
  2 25  1  0  0  0  0
  2  3  1  0  0  0  0
  3  4  2  0  0  0  0
  3  5  1  0  0  0  0
  5 26  1  0  0  0  0
  5 27  1  0  0  0  0
  5  6  1  0  0  0  0
  6 28  1  0  0  0  0
  6  7  1  0  0  0  0
  7 29  1  0  0  0  0
  7 30  1  0  0  0  0
  7 31  1  0  0  0  0
  6  8  1  0  0  0  0
  8  9  2  0  0  0  0
  9 32  1  0  0  0  0
  9 10  1  0  0  0  0
 10 33  1  0  0  0  0
 10 11  2  0  0  0  0
 11 12  1  0  0  0  0
 12 34  1  0  0  0  0
 12 13  2  0  0  0  0
 13  8  1  0  0  0  0
 13 35  1  0  0  0  0
 11 14  1  0  0  0  0
 14 36  1  0  0  0  0
 14 15  1  0  0  0  0
 15 16  2  0  0  0  0
 15 17  2  0  0  0  0
 15 18  1  0  0  0  0
 18 19  2  0  0  0  0
 19 37  1  0  0  0  0
 19 20  1  0  0  0  0
 20 38  1  0  0  0  0
 20 21  2  0  0  0  0
 21 39  1  0  0  0  0
 21 22  1  0  0  0  0
 22 40  1  0  0  0  0
 22 23  2  0  0  0  0
 23 18  1  0  0  0  0
 23 41  1  0  0  0  0
M  END
>  <EXTREG>  (Row31_000)
Row31_000

>  <Similarity>  (Row31_000)
7.3605

>  <RMSD_ISO>  (Row31_000)
0.0000

>  <STRAIN>  (Row31_000)
0.0000

>  <ID>  (Row31_000)
M031

>  <IC50>  (Row31_000)
17000.0000

>  <pIC50>  (Row31_000)
4.7696

$$$$
Row32_000
  -MTS-   08231913523D 0   0.00000     0.00000     0

 39 40  0  0  0  0  0  0  0  0999 V2000
    2.1470   17.2650   -6.2280 O   0  0  0  0  0  0  0  0  0  0  0  0
    2.6510   18.3190   -5.6420 N   0  0  0  0  0  0  0  0  0  0  0  0
    1.9420   19.1160   -4.8610 C   0  0  0  0  0  0  0  0  0  0  0  0
    0.7590   18.8580   -4.6720 O   0  0  0  0  0  0  0  0  0  0  0  0
    2.5360   20.2060   -4.2970 C   0  0  0  0  0  0  0  0  0  0  0  0
    2.3400   20.6410   -3.0370 C   0  0  0  0  0  0  0  0  0  0  0  0
    2.9090   21.7620   -2.4100 C   0  0  0  0  0  0  0  0  0  0  0  0
    3.3920   21.6240   -1.0810 C   0  0  0  0  0  0  0  0  0  0  0  0
    3.9640   22.7040   -0.3840 C   0  0  0  0  0  0  0  0  0  0  0  0
    4.0750   23.9660   -1.0000 C   0  0  0  0  0  0  0  0  0  0  0  0
    3.6020   24.1280   -2.3180 C   0  0  0  0  0  0  0  0  0  0  0  0
    3.0310   23.0450   -3.0110 C   0  0  0  0  0  0  0  0  0  0  0  0
    4.6060   25.0240   -0.3290 N   0  0  0  0  0  0  0  0  0  0  0  0
    6.0260   25.1510   -0.2030 C   0  0  0  0  0  0  0  0  0  0  0  0
    3.5610   26.0810    0.4760 S   0  0  0  0  0  0  0  0  0  0  0  0
    2.2730   26.3540   -0.4210 O   0  0  0  0  0  0  0  0  0  0  0  0
    4.2560   27.5120    0.5600 O   0  0  0  0  0  0  0  0  0  0  0  0
    3.1240   25.5090    2.0570 C   0  0  0  0  0  0  0  0  0  0  0  0
    3.9860   24.6370    2.7570 C   0  0  0  0  0  0  0  0  0  0  0  0
    3.6230   24.1510    4.0300 C   0  0  0  0  0  0  0  0  0  0  0  0
    2.3930   24.5310    4.6050 C   0  0  0  0  0  0  0  0  0  0  0  0
    1.5250   25.3890    3.9050 C   0  0  0  0  0  0  0  0  0  0  0  0
    1.8880   25.8770    2.6350 C   0  0  0  0  0  0  0  0  0  0  0  0
    2.3290   16.5260   -5.6080 H   0  0  0  0  0  0  0  0  0  0  0  0
    3.5870   18.5240   -5.7870 H   0  0  0  0  0  0  0  0  0  0  0  0
    3.1550   20.7120   -4.8810 H   0  0  0  0  0  0  0  0  0  0  0  0
    1.7090   20.1040   -2.4850 H   0  0  0  0  0  0  0  0  0  0  0  0
    3.3290   20.7270   -0.5930 H   0  0  0  0  0  0  0  0  0  0  0  0
    4.2980   22.5650    0.5730 H   0  0  0  0  0  0  0  0  0  0  0  0
    3.6710   25.0420   -2.7740 H   0  0  0  0  0  0  0  0  0  0  0  0
    2.7080   23.2230   -3.9610 H   0  0  0  0  0  0  0  0  0  0  0  0
    6.3080   26.0150    0.4010 H   0  0  0  0  0  0  0  0  0  0  0  0
    6.4450   24.2610    0.2690 H   0  0  0  0  0  0  0  0  0  0  0  0
    6.4790   25.2700   -1.1890 H   0  0  0  0  0  0  0  0  0  0  0  0
    4.8790   24.3510    2.3500 H   0  0  0  0  0  0  0  0  0  0  0  0
    4.2530   23.5210    4.5340 H   0  0  0  0  0  0  0  0  0  0  0  0
    2.1320   24.1730    5.5270 H   0  0  0  0  0  0  0  0  0  0  0  0
    0.6300   25.6560    4.3190 H   0  0  0  0  0  0  0  0  0  0  0  0
    1.2460   26.4980    2.1360 H   0  0  0  0  0  0  0  0  0  0  0  0
  1 24  1  0  0  0  0
  1  2  1  0  0  0  0
  2 25  1  0  0  0  0
  2  3  1  0  0  0  0
  3  4  2  0  0  0  0
  3  5  1  0  0  0  0
  5 26  1  0  0  0  0
  5  6  2  0  0  0  0
  6 27  1  0  0  0  0
  6  7  1  0  0  0  0
  7  8  2  0  0  0  0
  8 28  1  0  0  0  0
  8  9  1  0  0  0  0
  9 29  1  0  0  0  0
  9 10  2  0  0  0  0
 10 11  1  0  0  0  0
 11 30  1  0  0  0  0
 11 12  2  0  0  0  0
 12  7  1  0  0  0  0
 12 31  1  0  0  0  0
 10 13  1  0  0  0  0
 13 14  1  0  0  0  0
 14 32  1  0  0  0  0
 14 33  1  0  0  0  0
 14 34  1  0  0  0  0
 13 15  1  0  0  0  0
 15 16  2  0  0  0  0
 15 17  2  0  0  0  0
 15 18  1  0  0  0  0
 18 19  2  0  0  0  0
 19 35  1  0  0  0  0
 19 20  1  0  0  0  0
 20 36  1  0  0  0  0
 20 21  2  0  0  0  0
 21 37  1  0  0  0  0
 21 22  1  0  0  0  0
 22 38  1  0  0  0  0
 22 23  2  0  0  0  0
 23 18  1  0  0  0  0
 23 39  1  0  0  0  0
M  END
>  <EXTREG>  (Row32_000)
Row32_000

>  <Similarity>  (Row32_000)
7.7468

>  <RMSD_ISO>  (Row32_000)
0.0000

>  <STRAIN>  (Row32_000)
0.0000

>  <ID>  (Row32_000)
M032

>  <IC50>  (Row32_000)
600.0000

>  <pIC50>  (Row32_000)
6.2218

$$$$
Row33_000
  -MTS-   08231913523D 0   0.00000     0.00000     0

 36 37  0  0  0  0  0  0  0  0999 V2000
    2.3040   17.7510   -6.4570 O   0  0  0  0  0  0  0  0  0  0  0  0
    2.5470   18.8380   -5.7700 N   0  0  0  0  0  0  0  0  0  0  0  0
    1.7360   19.2940   -4.8300 C   0  0  0  0  0  0  0  0  0  0  0  0
    0.7130   18.6680   -4.5740 O   0  0  0  0  0  0  0  0  0  0  0  0
    2.0610   20.4390   -4.1640 C   0  0  0  0  0  0  0  0  0  0  0  0
    3.2130   20.6480   -3.4940 C   0  0  0  0  0  0  0  0  0  0  0  0
    3.5830   21.8040   -2.7880 C   0  0  0  0  0  0  0  0  0  0  0  0
    3.5490   21.7750   -1.3670 C   0  0  0  0  0  0  0  0  0  0  0  0
    3.8950   22.9020   -0.6000 C   0  0  0  0  0  0  0  0  0  0  0  0
    4.2840   24.1000   -1.2300 C   0  0  0  0  0  0  0  0  0  0  0  0
    4.3680   24.1370   -2.6380 C   0  0  0  0  0  0  0  0  0  0  0  0
    4.0150   23.0100   -3.4050 C   0  0  0  0  0  0  0  0  0  0  0  0
    4.6220   25.2040   -0.5210 N   0  0  0  0  0  0  0  0  0  0  0  0
    3.4270   26.1840    0.1550 S   0  0  0  0  0  0  0  0  0  0  0  0
    2.0970   26.0240   -0.7090 O   0  0  0  0  0  0  0  0  0  0  0  0
    3.9090   27.6820   -0.0650 O   0  0  0  0  0  0  0  0  0  0  0  0
    3.1220   25.9500    1.8550 C   0  0  0  0  0  0  0  0  0  0  0  0
    4.1290   25.4450    2.7040 C   0  0  0  0  0  0  0  0  0  0  0  0
    3.8680   25.2410    4.0730 C   0  0  0  0  0  0  0  0  0  0  0  0
    2.5940   25.5270    4.6010 C   0  0  0  0  0  0  0  0  0  0  0  0
    1.5820   26.0160    3.7540 C   0  0  0  0  0  0  0  0  0  0  0  0
    1.8450   26.2300    2.3880 C   0  0  0  0  0  0  0  0  0  0  0  0
    2.2760   25.2740    6.2430 Cl  0  0  0  0  0  0  0  0  0  0  0  0
    2.7940   17.0490   -5.9800 H   0  0  0  0  0  0  0  0  0  0  0  0
    3.3610   19.3290   -5.9610 H   0  0  0  0  0  0  0  0  0  0  0  0
    1.3760   21.1550   -4.1510 H   0  0  0  0  0  0  0  0  0  0  0  0
    3.8610   19.8940   -3.4750 H   0  0  0  0  0  0  0  0  0  0  0  0
    3.2680   20.9270   -0.8680 H   0  0  0  0  0  0  0  0  0  0  0  0
    3.8770   22.8360    0.4190 H   0  0  0  0  0  0  0  0  0  0  0  0
    4.6700   24.9910   -3.1120 H   0  0  0  0  0  0  0  0  0  0  0  0
    4.0980   23.0860   -4.4200 H   0  0  0  0  0  0  0  0  0  0  0  0
    5.4250   25.6690   -0.8090 H   0  0  0  0  0  0  0  0  0  0  0  0
    5.0540   25.2210    2.3350 H   0  0  0  0  0  0  0  0  0  0  0  0
    4.6090   24.8830    4.6790 H   0  0  0  0  0  0  0  0  0  0  0  0
    0.6510   26.2190    4.1250 H   0  0  0  0  0  0  0  0  0  0  0  0
    1.0980   26.5860    1.7870 H   0  0  0  0  0  0  0  0  0  0  0  0
  1 24  1  0  0  0  0
  1  2  1  0  0  0  0
  2 25  1  0  0  0  0
  2  3  1  0  0  0  0
  3  4  2  0  0  0  0
  3  5  1  0  0  0  0
  5 26  1  0  0  0  0
  5  6  2  0  0  0  0
  6 27  1  0  0  0  0
  6  7  1  0  0  0  0
  7  8  2  0  0  0  0
  8 28  1  0  0  0  0
  8  9  1  0  0  0  0
  9 29  1  0  0  0  0
  9 10  2  0  0  0  0
 10 11  1  0  0  0  0
 11 30  1  0  0  0  0
 11 12  2  0  0  0  0
 12  7  1  0  0  0  0
 12 31  1  0  0  0  0
 10 13  1  0  0  0  0
 13 32  1  0  0  0  0
 13 14  1  0  0  0  0
 14 15  2  0  0  0  0
 14 16  2  0  0  0  0
 14 17  1  0  0  0  0
 17 18  2  0  0  0  0
 18 33  1  0  0  0  0
 18 19  1  0  0  0  0
 19 34  1  0  0  0  0
 19 20  2  0  0  0  0
 20 21  1  0  0  0  0
 21 35  1  0  0  0  0
 21 22  2  0  0  0  0
 22 17  1  0  0  0  0
 22 36  1  0  0  0  0
 20 23  1  0  0  0  0
M  END
>  <EXTREG>  (Row33_000)
Row33_000

>  <Similarity>  (Row33_000)
7.0256

>  <RMSD_ISO>  (Row33_000)
0.0000

>  <STRAIN>  (Row33_000)
0.0000

>  <ID>  (Row33_000)
M033

>  <IC50>  (Row33_000)
75.0000

>  <pIC50>  (Row33_000)
7.1249

$$$$
Row34_000
  -MTS-   08231913523D 0   0.00000     0.00000     0

 36 37  0  0  0  0  0  0  0  0999 V2000
    2.4620   17.9520   -6.1330 O   0  0  0  0  0  0  0  0  0  0  0  0
    2.7280   18.9920   -5.3870 N   0  0  0  0  0  0  0  0  0  0  0  0
    1.8450   19.5200   -4.5530 C   0  0  0  0  0  0  0  0  0  0  0  0
    0.7290   19.0160   -4.4760 O   0  0  0  0  0  0  0  0  0  0  0  0
    2.1950   20.6100   -3.8080 C   0  0  0  0  0  0  0  0  0  0  0  0
    3.3990   20.7970   -3.2300 C   0  0  0  0  0  0  0  0  0  0  0  0
    3.8090   21.8960   -2.4580 C   0  0  0  0  0  0  0  0  0  0  0  0
    3.9750   23.1530   -3.0940 C   0  0  0  0  0  0  0  0  0  0  0  0
    4.3940   24.2870   -2.3760 C   0  0  0  0  0  0  0  0  0  0  0  0
    4.6490   24.2030   -0.9930 C   0  0  0  0  0  0  0  0  0  0  0  0
    4.4480   22.9750   -0.3340 C   0  0  0  0  0  0  0  0  0  0  0  0
    4.0460   21.8370   -1.0590 C   0  0  0  0  0  0  0  0  0  0  0  0
    5.0410   25.2810   -0.2700 N   0  0  0  0  0  0  0  0  0  0  0  0
    3.9000   26.3630    0.3460 S   0  0  0  0  0  0  0  0  0  0  0  0
    2.6800   26.4470   -0.6750 O   0  0  0  0  0  0  0  0  0  0  0  0
    4.5880   27.8020    0.3450 O   0  0  0  0  0  0  0  0  0  0  0  0
    3.3470   26.0160    1.9620 C   0  0  0  0  0  0  0  0  0  0  0  0
    4.1560   25.2950    2.8640 C   0  0  0  0  0  0  0  0  0  0  0  0
    3.6950   25.0030    4.1630 C   0  0  0  0  0  0  0  0  0  0  0  0
    2.4040   25.4220    4.5620 C   0  0  0  0  0  0  0  0  0  0  0  0
    1.5920   26.1330    3.6560 C   0  0  0  0  0  0  0  0  0  0  0  0
    2.0610   26.4290    2.3650 C   0  0  0  0  0  0  0  0  0  0  0  0
    1.7880   25.1010    6.1100 Cl  0  0  0  0  0  0  0  0  0  0  0  0
    4.7230   24.1450    5.2030 Cl  0  0  0  0  0  0  0  0  0  0  0  0
    3.0340   17.2400   -5.7790 H   0  0  0  0  0  0  0  0  0  0  0  0
    3.6160   19.3850   -5.4400 H   0  0  0  0  0  0  0  0  0  0  0  0
    1.4890   21.2920   -3.6550 H   0  0  0  0  0  0  0  0  0  0  0  0
    4.0640   20.0680   -3.3440 H   0  0  0  0  0  0  0  0  0  0  0  0
    3.8010   23.2590   -4.0990 H   0  0  0  0  0  0  0  0  0  0  0  0
    4.5000   25.1790   -2.8680 H   0  0  0  0  0  0  0  0  0  0  0  0
    4.6170   22.8970    0.6700 H   0  0  0  0  0  0  0  0  0  0  0  0
    3.9130   20.9700   -0.5390 H   0  0  0  0  0  0  0  0  0  0  0  0
    5.8960   25.6780   -0.5190 H   0  0  0  0  0  0  0  0  0  0  0  0
    5.0860   24.9790    2.5810 H   0  0  0  0  0  0  0  0  0  0  0  0
    0.6540   26.4350    3.9320 H   0  0  0  0  0  0  0  0  0  0  0  0
    1.4540   26.9390    1.7200 H   0  0  0  0  0  0  0  0  0  0  0  0
  1 25  1  0  0  0  0
  1  2  1  0  0  0  0
  2 26  1  0  0  0  0
  2  3  1  0  0  0  0
  3  4  2  0  0  0  0
  3  5  1  0  0  0  0
  5 27  1  0  0  0  0
  5  6  2  0  0  0  0
  6 28  1  0  0  0  0
  6  7  1  0  0  0  0
  7  8  2  0  0  0  0
  8 29  1  0  0  0  0
  8  9  1  0  0  0  0
  9 30  1  0  0  0  0
  9 10  2  0  0  0  0
 10 11  1  0  0  0  0
 11 31  1  0  0  0  0
 11 12  2  0  0  0  0
 12  7  1  0  0  0  0
 12 32  1  0  0  0  0
 10 13  1  0  0  0  0
 13 33  1  0  0  0  0
 13 14  1  0  0  0  0
 14 15  2  0  0  0  0
 14 16  2  0  0  0  0
 14 17  1  0  0  0  0
 17 18  2  0  0  0  0
 18 34  1  0  0  0  0
 18 19  1  0  0  0  0
 19 20  2  0  0  0  0
 20 21  1  0  0  0  0
 21 35  1  0  0  0  0
 21 22  2  0  0  0  0
 22 17  1  0  0  0  0
 22 36  1  0  0  0  0
 20 23  1  0  0  0  0
 19 24  1  0  0  0  0
M  END
>  <EXTREG>  (Row34_000)
Row34_000

>  <Similarity>  (Row34_000)
7.2555

>  <RMSD_ISO>  (Row34_000)
0.0000

>  <STRAIN>  (Row34_000)
0.0000

>  <ID>  (Row34_000)
M034

>  <IC50>  (Row34_000)
100.0000

>  <pIC50>  (Row34_000)
7.0000

$$$$
Row35_000
  -MTS-   08231913523D 0   0.00000     0.00000     0

 36 37  0  0  0  0  0  0  0  0999 V2000
    2.6960   18.0120   -6.3370 O   0  0  0  0  0  0  0  0  0  0  0  0
    2.9270   18.8060   -5.3290 N   0  0  0  0  0  0  0  0  0  0  0  0
    1.9600   19.3450   -4.6100 C   0  0  0  0  0  0  0  0  0  0  0  0
    0.7900   19.1270   -4.9010 O   0  0  0  0  0  0  0  0  0  0  0  0
    2.2750   20.1690   -3.5780 C   0  0  0  0  0  0  0  0  0  0  0  0
    3.1680   21.1760   -3.6600 C   0  0  0  0  0  0  0  0  0  0  0  0
    3.5350   22.0470   -2.6260 C   0  0  0  0  0  0  0  0  0  0  0  0
    4.0920   23.3080   -2.9560 C   0  0  0  0  0  0  0  0  0  0  0  0
    4.4840   24.2190   -1.9580 C   0  0  0  0  0  0  0  0  0  0  0  0
    4.3580   23.8930   -0.5930 C   0  0  0  0  0  0  0  0  0  0  0  0
    3.8100   22.6360   -0.2510 C   0  0  0  0  0  0  0  0  0  0  0  0
    3.4060   21.7310   -1.2500 C   0  0  0  0  0  0  0  0  0  0  0  0
    4.7810   24.8230    0.3090 N   0  0  0  0  0  0  0  0  0  0  0  0
    3.8070   25.9410    1.1150 S   0  0  0  0  0  0  0  0  0  0  0  0
    2.5010   26.2530    0.2590 O   0  0  0  0  0  0  0  0  0  0  0  0
    4.6380   27.2960    1.1130 O   0  0  0  0  0  0  0  0  0  0  0  0
    3.5080   25.5550    2.7920 C   0  0  0  0  0  0  0  0  0  0  0  0
    4.5300   25.0940    3.6620 C   0  0  0  0  0  0  0  0  0  0  0  0
    4.2220   24.7840    5.0030 C   0  0  0  0  0  0  0  0  0  0  0  0
    2.9080   24.9220    5.4880 C   0  0  0  0  0  0  0  0  0  0  0  0
    1.8930   25.3770    4.6270 C   0  0  0  0  0  0  0  0  0  0  0  0
    2.1930   25.6920    3.2900 C   0  0  0  0  0  0  0  0  0  0  0  0
    2.5470   24.5440    7.0980 Cl  0  0  0  0  0  0  0  0  0  0  0  0
    6.1400   24.8820    3.1660 Cl  0  0  0  0  0  0  0  0  0  0  0  0
    3.1210   17.1660   -6.0880 H   0  0  0  0  0  0  0  0  0  0  0  0
    3.8490   18.9950   -5.0910 H   0  0  0  0  0  0  0  0  0  0  0  0
    1.7660   20.0460   -2.7310 H   0  0  0  0  0  0  0  0  0  0  0  0
    3.5810   21.3410   -4.5530 H   0  0  0  0  0  0  0  0  0  0  0  0
    4.2030   23.5890   -3.9340 H   0  0  0  0  0  0  0  0  0  0  0  0
    4.8710   25.1240   -2.2370 H   0  0  0  0  0  0  0  0  0  0  0  0
    3.7020   22.3620    0.7260 H   0  0  0  0  0  0  0  0  0  0  0  0
    3.0410   20.8230   -0.9500 H   0  0  0  0  0  0  0  0  0  0  0  0
    5.7010   24.7560    0.6110 H   0  0  0  0  0  0  0  0  0  0  0  0
    4.9570   24.4510    5.6330 H   0  0  0  0  0  0  0  0  0  0  0  0
    0.9350   25.4800    4.9680 H   0  0  0  0  0  0  0  0  0  0  0  0
    1.4380   26.0170    2.6830 H   0  0  0  0  0  0  0  0  0  0  0  0
  1 25  1  0  0  0  0
  1  2  1  0  0  0  0
  2 26  1  0  0  0  0
  2  3  1  0  0  0  0
  3  4  2  0  0  0  0
  3  5  1  0  0  0  0
  5 27  1  0  0  0  0
  5  6  2  0  0  0  0
  6 28  1  0  0  0  0
  6  7  1  0  0  0  0
  7  8  2  0  0  0  0
  8 29  1  0  0  0  0
  8  9  1  0  0  0  0
  9 30  1  0  0  0  0
  9 10  2  0  0  0  0
 10 11  1  0  0  0  0
 11 31  1  0  0  0  0
 11 12  2  0  0  0  0
 12  7  1  0  0  0  0
 12 32  1  0  0  0  0
 10 13  1  0  0  0  0
 13 33  1  0  0  0  0
 13 14  1  0  0  0  0
 14 15  2  0  0  0  0
 14 16  2  0  0  0  0
 14 17  1  0  0  0  0
 17 18  2  0  0  0  0
 18 19  1  0  0  0  0
 19 34  1  0  0  0  0
 19 20  2  0  0  0  0
 20 21  1  0  0  0  0
 21 35  1  0  0  0  0
 21 22  2  0  0  0  0
 22 17  1  0  0  0  0
 22 36  1  0  0  0  0
 20 23  1  0  0  0  0
 18 24  1  0  0  0  0
M  END
>  <EXTREG>  (Row35_000)
Row35_000

>  <Similarity>  (Row35_000)
6.8974

>  <RMSD_ISO>  (Row35_000)
0.0000

>  <STRAIN>  (Row35_000)
0.0000

>  <ID>  (Row35_000)
M035

>  <IC50>  (Row35_000)
300.0000

>  <pIC50>  (Row35_000)
6.5229

$$$$
Row36_000
  -MTS-   08231913523D 0   0.00000     0.00000     0

 40 41  0  0  0  0  0  0  0  0999 V2000
    2.4550   17.5790   -6.0470 O   0  0  0  0  0  0  0  0  0  0  0  0
    2.7310   18.7020   -5.4370 N   0  0  0  0  0  0  0  0  0  0  0  0
    1.8480   19.3550   -4.7000 C   0  0  0  0  0  0  0  0  0  0  0  0
    0.7070   18.9110   -4.5930 O   0  0  0  0  0  0  0  0  0  0  0  0
    2.2050   20.5290   -4.1110 C   0  0  0  0  0  0  0  0  0  0  0  0
    3.2110   20.6670   -3.2240 C   0  0  0  0  0  0  0  0  0  0  0  0
    3.5910   21.8460   -2.5660 C   0  0  0  0  0  0  0  0  0  0  0  0
    3.4580   21.9190   -1.1560 C   0  0  0  0  0  0  0  0  0  0  0  0
    3.8060   23.0820   -0.4450 C   0  0  0  0  0  0  0  0  0  0  0  0
    4.2770   24.2270   -1.1220 C   0  0  0  0  0  0  0  0  0  0  0  0
    4.4020   24.1690   -2.5290 C   0  0  0  0  0  0  0  0  0  0  0  0
    4.0610   23.0020   -3.2380 C   0  0  0  0  0  0  0  0  0  0  0  0
    4.5780   25.3190   -0.3630 N   0  0  0  0  0  0  0  0  0  0  0  0
    3.4770   26.4410    0.2510 S   0  0  0  0  0  0  0  0  0  0  0  0
    2.1410   26.4610   -0.6150 O   0  0  0  0  0  0  0  0  0  0  0  0
    4.1600   27.8580    0.0150 O   0  0  0  0  0  0  0  0  0  0  0  0
    3.2400   26.3000    1.9710 C   0  0  0  0  0  0  0  0  0  0  0  0
    4.3540   26.3500    2.8360 C   0  0  0  0  0  0  0  0  0  0  0  0
    4.1780   26.2190    4.2270 C   0  0  0  0  0  0  0  0  0  0  0  0
    2.8890   26.0180    4.7670 C   0  0  0  0  0  0  0  0  0  0  0  0
    1.7730   25.9910    3.9030 C   0  0  0  0  0  0  0  0  0  0  0  0
    1.9470   26.1230    2.5130 C   0  0  0  0  0  0  0  0  0  0  0  0
    2.7240   25.9140    6.1210 O   0  0  0  0  0  0  0  0  0  0  0  0
    2.3290   24.6100    6.5950 C   0  0  0  0  0  0  0  0  0  0  0  0
    2.2540   24.6770    7.9650 F   0  0  0  0  0  0  0  0  0  0  0  0
    1.0820   24.2360    6.1330 F   0  0  0  0  0  0  0  0  0  0  0  0
    3.2470   23.6310    6.2830 F   0  0  0  0  0  0  0  0  0  0  0  0
    3.0290   16.9140   -5.6130 H   0  0  0  0  0  0  0  0  0  0  0  0
    3.6290   19.0650   -5.5270 H   0  0  0  0  0  0  0  0  0  0  0  0
    1.7150   21.3450   -4.4000 H   0  0  0  0  0  0  0  0  0  0  0  0
    3.7530   19.8560   -3.0290 H   0  0  0  0  0  0  0  0  0  0  0  0
    3.1170   21.1160   -0.6220 H   0  0  0  0  0  0  0  0  0  0  0  0
    3.6980   23.0920    0.5740 H   0  0  0  0  0  0  0  0  0  0  0  0
    4.7390   24.9760   -3.0560 H   0  0  0  0  0  0  0  0  0  0  0  0
    4.1490   23.0220   -4.2550 H   0  0  0  0  0  0  0  0  0  0  0  0
    5.5030   25.4200   -0.0820 H   0  0  0  0  0  0  0  0  0  0  0  0
    5.2980   26.4850    2.4590 H   0  0  0  0  0  0  0  0  0  0  0  0
    4.9920   26.2660    4.8460 H   0  0  0  0  0  0  0  0  0  0  0  0
    0.8320   25.8730    4.2860 H   0  0  0  0  0  0  0  0  0  0  0  0
    1.1290   26.0890    1.9020 H   0  0  0  0  0  0  0  0  0  0  0  0
  1 28  1  0  0  0  0
  1  2  1  0  0  0  0
  2 29  1  0  0  0  0
  2  3  1  0  0  0  0
  3  4  2  0  0  0  0
  3  5  1  0  0  0  0
  5 30  1  0  0  0  0
  5  6  2  0  0  0  0
  6 31  1  0  0  0  0
  6  7  1  0  0  0  0
  7  8  2  0  0  0  0
  8 32  1  0  0  0  0
  8  9  1  0  0  0  0
  9 33  1  0  0  0  0
  9 10  2  0  0  0  0
 10 11  1  0  0  0  0
 11 34  1  0  0  0  0
 11 12  2  0  0  0  0
 12  7  1  0  0  0  0
 12 35  1  0  0  0  0
 10 13  1  0  0  0  0
 13 36  1  0  0  0  0
 13 14  1  0  0  0  0
 14 15  2  0  0  0  0
 14 16  2  0  0  0  0
 14 17  1  0  0  0  0
 17 18  2  0  0  0  0
 18 37  1  0  0  0  0
 18 19  1  0  0  0  0
 19 38  1  0  0  0  0
 19 20  2  0  0  0  0
 20 21  1  0  0  0  0
 21 39  1  0  0  0  0
 21 22  2  0  0  0  0
 22 17  1  0  0  0  0
 22 40  1  0  0  0  0
 20 23  1  0  0  0  0
 23 24  1  0  0  0  0
 24 25  1  0  0  0  0
 24 26  1  0  0  0  0
 24 27  1  0  0  0  0
M  END
>  <EXTREG>  (Row36_000)
Row36_000

>  <Similarity>  (Row36_000)
7.2026

>  <RMSD_ISO>  (Row36_000)
0.0000

>  <STRAIN>  (Row36_000)
0.0000

>  <ID>  (Row36_000)
M036

>  <IC50>  (Row36_000)
600.0000

>  <pIC50>  (Row36_000)
6.2218

$$$$
Row37_000
  -MTS-   08231913523D 0   0.00000     0.00000     0

 39 40  0  0  0  0  0  0  0  0999 V2000
    2.0610   18.1440   -6.2480 O   0  0  0  0  0  0  0  0  0  0  0  0
    2.5480   19.0480   -5.4410 N   0  0  0  0  0  0  0  0  0  0  0  0
    1.8380   19.6020   -4.4740 C   0  0  0  0  0  0  0  0  0  0  0  0
    0.6780   19.2470   -4.2970 O   0  0  0  0  0  0  0  0  0  0  0  0
    2.4170   20.5300   -3.6690 C   0  0  0  0  0  0  0  0  0  0  0  0
    2.1550   21.8520   -3.7200 C   0  0  0  0  0  0  0  0  0  0  0  0
    2.7250   22.8460   -2.9150 C   0  0  0  0  0  0  0  0  0  0  0  0
    1.8720   23.6940   -2.1640 C   0  0  0  0  0  0  0  0  0  0  0  0
    2.3890   24.7110   -1.3430 C   0  0  0  0  0  0  0  0  0  0  0  0
    3.7840   24.9120   -1.2340 C   0  0  0  0  0  0  0  0  0  0  0  0
    4.6390   24.0550   -1.9530 C   0  0  0  0  0  0  0  0  0  0  0  0
    4.1220   23.0380   -2.7770 C   0  0  0  0  0  0  0  0  0  0  0  0
    4.3720   25.8810   -0.4760 N   0  0  0  0  0  0  0  0  0  0  0  0
    3.5830   27.1070    0.3710 S   0  0  0  0  0  0  0  0  0  0  0  0
    2.4590   27.7810   -0.5310 O   0  0  0  0  0  0  0  0  0  0  0  0
    4.6740   28.2480    0.5550 O   0  0  0  0  0  0  0  0  0  0  0  0
    3.0670   26.6540    1.9710 C   0  0  0  0  0  0  0  0  0  0  0  0
    3.8900   25.8330    2.7690 C   0  0  0  0  0  0  0  0  0  0  0  0
    3.4990   25.4500    4.0760 C   0  0  0  0  0  0  0  0  0  0  0  0
    2.2520   25.9130    4.5630 C   0  0  0  0  0  0  0  0  0  0  0  0
    1.4250   26.7300    3.7720 C   0  0  0  0  0  0  0  0  0  0  0  0
    1.8310   27.1000    2.4780 C   0  0  0  0  0  0  0  0  0  0  0  0
    4.3490   24.5870    4.9450 C   0  0  0  0  0  0  0  0  0  0  0  0
    4.6700   25.2630    6.0980 F   0  0  0  0  0  0  0  0  0  0  0  0
    5.5350   24.1900    4.3750 F   0  0  0  0  0  0  0  0  0  0  0  0
    3.6680   23.4430    5.2830 F   0  0  0  0  0  0  0  0  0  0  0  0
    2.3030   17.2870   -5.8380 H   0  0  0  0  0  0  0  0  0  0  0  0
    3.4680   19.3310   -5.5670 H   0  0  0  0  0  0  0  0  0  0  0  0
    3.1150   20.2070   -3.0420 H   0  0  0  0  0  0  0  0  0  0  0  0
    1.5250   22.1590   -4.4290 H   0  0  0  0  0  0  0  0  0  0  0  0
    0.8550   23.5930   -2.2240 H   0  0  0  0  0  0  0  0  0  0  0  0
    1.7330   25.3050   -0.8320 H   0  0  0  0  0  0  0  0  0  0  0  0
    5.6550   24.1690   -1.8880 H   0  0  0  0  0  0  0  0  0  0  0  0
    4.7880   22.4360   -3.2640 H   0  0  0  0  0  0  0  0  0  0  0  0
    5.3410   25.8600   -0.4120 H   0  0  0  0  0  0  0  0  0  0  0  0
    4.7830   25.5150    2.3880 H   0  0  0  0  0  0  0  0  0  0  0  0
    1.9380   25.6570    5.5030 H   0  0  0  0  0  0  0  0  0  0  0  0
    0.5260   27.0520    4.1370 H   0  0  0  0  0  0  0  0  0  0  0  0
    1.2200   27.6920    1.9120 H   0  0  0  0  0  0  0  0  0  0  0  0
  1 27  1  0  0  0  0
  1  2  1  0  0  0  0
  2 28  1  0  0  0  0
  2  3  1  0  0  0  0
  3  4  2  0  0  0  0
  3  5  1  0  0  0  0
  5 29  1  0  0  0  0
  5  6  2  0  0  0  0
  6 30  1  0  0  0  0
  6  7  1  0  0  0  0
  7  8  2  0  0  0  0
  8 31  1  0  0  0  0
  8  9  1  0  0  0  0
  9 32  1  0  0  0  0
  9 10  2  0  0  0  0
 10 11  1  0  0  0  0
 11 33  1  0  0  0  0
 11 12  2  0  0  0  0
 12  7  1  0  0  0  0
 12 34  1  0  0  0  0
 10 13  1  0  0  0  0
 13 35  1  0  0  0  0
 13 14  1  0  0  0  0
 14 15  2  0  0  0  0
 14 16  2  0  0  0  0
 14 17  1  0  0  0  0
 17 18  2  0  0  0  0
 18 36  1  0  0  0  0
 18 19  1  0  0  0  0
 19 20  2  0  0  0  0
 20 37  1  0  0  0  0
 20 21  1  0  0  0  0
 21 38  1  0  0  0  0
 21 22  2  0  0  0  0
 22 17  1  0  0  0  0
 22 39  1  0  0  0  0
 19 23  1  0  0  0  0
 23 24  1  0  0  0  0
 23 25  1  0  0  0  0
 23 26  1  0  0  0  0
M  END
>  <EXTREG>  (Row37_000)
Row37_000

>  <Similarity>  (Row37_000)
6.9921

>  <RMSD_ISO>  (Row37_000)
0.0000

>  <STRAIN>  (Row37_000)
0.0000

>  <ID>  (Row37_000)
M037

>  <IC50>  (Row37_000)
100.0000

>  <pIC50>  (Row37_000)
7.0000

$$$$
Row38_000
  -MTS-   08231913523D 0   0.00000     0.00000     0

 39 40  0  0  0  0  0  0  0  0999 V2000
    2.4130   18.0050   -6.1820 O   0  0  0  0  0  0  0  0  0  0  0  0
    2.6180   19.0890   -5.4830 N   0  0  0  0  0  0  0  0  0  0  0  0
    1.7060   19.6070   -4.6770 C   0  0  0  0  0  0  0  0  0  0  0  0
    0.6210   19.0420   -4.5650 O   0  0  0  0  0  0  0  0  0  0  0  0
    1.9940   20.7460   -3.9860 C   0  0  0  0  0  0  0  0  0  0  0  0
    3.1060   20.9490   -3.2480 C   0  0  0  0  0  0  0  0  0  0  0  0
    3.4480   22.1060   -2.5280 C   0  0  0  0  0  0  0  0  0  0  0  0
    3.5920   22.0140   -1.1180 C   0  0  0  0  0  0  0  0  0  0  0  0
    3.9280   23.1360   -0.3410 C   0  0  0  0  0  0  0  0  0  0  0  0
    4.1410   24.3880   -0.9530 C   0  0  0  0  0  0  0  0  0  0  0  0
    4.0370   24.4930   -2.3530 C   0  0  0  0  0  0  0  0  0  0  0  0
    3.6860   23.3730   -3.1300 C   0  0  0  0  0  0  0  0  0  0  0  0
    4.4810   25.4820   -0.2300 N   0  0  0  0  0  0  0  0  0  0  0  0
    3.2950   26.3690    0.5760 S   0  0  0  0  0  0  0  0  0  0  0  0
    1.9530   26.3230   -0.2830 O   0  0  0  0  0  0  0  0  0  0  0  0
    3.7770   27.8880    0.5510 O   0  0  0  0  0  0  0  0  0  0  0  0
    3.0350   25.9130    2.2390 C   0  0  0  0  0  0  0  0  0  0  0  0
    1.8600   26.3070    2.9190 C   0  0  0  0  0  0  0  0  0  0  0  0
    1.6660   25.9500    4.2670 C   0  0  0  0  0  0  0  0  0  0  0  0
    2.6440   25.1980    4.9590 C   0  0  0  0  0  0  0  0  0  0  0  0
    3.8230   24.8210    4.2760 C   0  0  0  0  0  0  0  0  0  0  0  0
    4.0180   25.1740    2.9290 C   0  0  0  0  0  0  0  0  0  0  0  0
    2.4690   24.8100    6.3780 C   0  0  0  0  0  0  0  0  0  0  0  0
    2.9170   17.3100   -5.7050 H   0  0  0  0  0  0  0  0  0  0  0  0
    3.4750   19.5420   -5.5750 H   0  0  0  0  0  0  0  0  0  0  0  0
    1.3120   21.4650   -4.0140 H   0  0  0  0  0  0  0  0  0  0  0  0
    3.7440   20.1890   -3.1820 H   0  0  0  0  0  0  0  0  0  0  0  0
    3.4460   21.1220   -0.6320 H   0  0  0  0  0  0  0  0  0  0  0  0
    4.0380   23.0260    0.6720 H   0  0  0  0  0  0  0  0  0  0  0  0
    4.2010   25.3930   -2.8120 H   0  0  0  0  0  0  0  0  0  0  0  0
    3.6200   23.5000   -4.1410 H   0  0  0  0  0  0  0  0  0  0  0  0
    5.2390   26.0010   -0.5560 H   0  0  0  0  0  0  0  0  0  0  0  0
    1.1410   26.8560    2.4410 H   0  0  0  0  0  0  0  0  0  0  0  0
    0.8040   26.2440    4.7370 H   0  0  0  0  0  0  0  0  0  0  0  0
    4.5480   24.2880    4.7610 H   0  0  0  0  0  0  0  0  0  0  0  0
    4.8860   24.8990    2.4610 H   0  0  0  0  0  0  0  0  0  0  0  0
    2.4960   23.7250    6.4680 H   0  0  0  0  0  0  0  0  0  0  0  0
    1.5200   25.1670    6.7800 H   0  0  0  0  0  0  0  0  0  0  0  0
    3.2760   25.2300    6.9830 H   0  0  0  0  0  0  0  0  0  0  0  0
  1 24  1  0  0  0  0
  1  2  1  0  0  0  0
  2 25  1  0  0  0  0
  2  3  1  0  0  0  0
  3  4  2  0  0  0  0
  3  5  1  0  0  0  0
  5 26  1  0  0  0  0
  5  6  2  0  0  0  0
  6 27  1  0  0  0  0
  6  7  1  0  0  0  0
  7  8  2  0  0  0  0
  8 28  1  0  0  0  0
  8  9  1  0  0  0  0
  9 29  1  0  0  0  0
  9 10  2  0  0  0  0
 10 11  1  0  0  0  0
 11 30  1  0  0  0  0
 11 12  2  0  0  0  0
 12  7  1  0  0  0  0
 12 31  1  0  0  0  0
 10 13  1  0  0  0  0
 13 32  1  0  0  0  0
 13 14  1  0  0  0  0
 14 15  2  0  0  0  0
 14 16  2  0  0  0  0
 14 17  1  0  0  0  0
 17 18  2  0  0  0  0
 18 33  1  0  0  0  0
 18 19  1  0  0  0  0
 19 34  1  0  0  0  0
 19 20  2  0  0  0  0
 20 21  1  0  0  0  0
 21 35  1  0  0  0  0
 21 22  2  0  0  0  0
 22 17  1  0  0  0  0
 22 36  1  0  0  0  0
 20 23  1  0  0  0  0
 23 37  1  0  0  0  0
 23 38  1  0  0  0  0
 23 39  1  0  0  0  0
M  END
>  <EXTREG>  (Row38_000)
Row38_000

>  <Similarity>  (Row38_000)
7.4728

>  <RMSD_ISO>  (Row38_000)
0.0000

>  <STRAIN>  (Row38_000)
0.0000

>  <ID>  (Row38_000)
M038

>  <IC50>  (Row38_000)
300.0000

>  <pIC50>  (Row38_000)
6.5229

$$$$
Row39_000
  -MTS-   08231913523D 0   0.00000     0.00000     0

 39 40  0  0  0  0  0  0  0  0999 V2000
    2.4560   17.7300   -6.2580 O   0  0  0  0  0  0  0  0  0  0  0  0
    2.7350   18.7590   -5.5020 N   0  0  0  0  0  0  0  0  0  0  0  0
    1.8230   19.3950   -4.7850 C   0  0  0  0  0  0  0  0  0  0  0  0
    0.6600   19.0040   -4.8160 O   0  0  0  0  0  0  0  0  0  0  0  0
    2.1990   20.4600   -4.0210 C   0  0  0  0  0  0  0  0  0  0  0  0
    3.2720   20.4950   -3.2030 C   0  0  0  0  0  0  0  0  0  0  0  0
    3.7090   21.5820   -2.4240 C   0  0  0  0  0  0  0  0  0  0  0  0
    3.4650   21.5600   -1.0240 C   0  0  0  0  0  0  0  0  0  0  0  0
    3.8760   22.6180   -0.1900 C   0  0  0  0  0  0  0  0  0  0  0  0
    4.5580   23.7290   -0.7330 C   0  0  0  0  0  0  0  0  0  0  0  0
    4.8410   23.7530   -2.1130 C   0  0  0  0  0  0  0  0  0  0  0  0
    4.4150   22.7020   -2.9470 C   0  0  0  0  0  0  0  0  0  0  0  0
    4.9820   24.7520    0.0450 N   0  0  0  0  0  0  0  0  0  0  0  0
    3.8970   25.9590    0.5090 S   0  0  0  0  0  0  0  0  0  0  0  0
    2.7950   26.1100   -0.6320 O   0  0  0  0  0  0  0  0  0  0  0  0
    4.7180   27.3260    0.5150 O   0  0  0  0  0  0  0  0  0  0  0  0
    3.1790   25.7460    2.0830 C   0  0  0  0  0  0  0  0  0  0  0  0
    3.8450   25.0080    3.0860 C   0  0  0  0  0  0  0  0  0  0  0  0
    3.2590   24.8340    4.3620 C   0  0  0  0  0  0  0  0  0  0  0  0
    1.9890   25.4010    4.6140 C   0  0  0  0  0  0  0  0  0  0  0  0
    1.3190   26.1280    3.6110 C   0  0  0  0  0  0  0  0  0  0  0  0
    1.9090   26.2970    2.3500 C   0  0  0  0  0  0  0  0  0  0  0  0
    3.9490   24.0740    5.4350 C   0  0  0  0  0  0  0  0  0  0  0  0
    2.7310   16.9560   -5.7240 H   0  0  0  0  0  0  0  0  0  0  0  0
    3.6560   19.0720   -5.4740 H   0  0  0  0  0  0  0  0  0  0  0  0
    1.6200   21.2620   -4.0640 H   0  0  0  0  0  0  0  0  0  0  0  0
    3.8020   19.6590   -3.1260 H   0  0  0  0  0  0  0  0  0  0  0  0
    2.9750   20.7680   -0.5930 H   0  0  0  0  0  0  0  0  0  0  0  0
    3.6930   22.5620    0.8170 H   0  0  0  0  0  0  0  0  0  0  0  0
    5.3530   24.5410   -2.5230 H   0  0  0  0  0  0  0  0  0  0  0  0
    4.6530   22.7650   -3.9380 H   0  0  0  0  0  0  0  0  0  0  0  0
    5.9000   25.0410   -0.0810 H   0  0  0  0  0  0  0  0  0  0  0  0
    4.7600   24.5960    2.8900 H   0  0  0  0  0  0  0  0  0  0  0  0
    1.5430   25.2880    5.5280 H   0  0  0  0  0  0  0  0  0  0  0  0
    0.3980   26.5280    3.8040 H   0  0  0  0  0  0  0  0  0  0  0  0
    1.4030   26.8150    1.6290 H   0  0  0  0  0  0  0  0  0  0  0  0
    4.1190   24.7300    6.2940 H   0  0  0  0  0  0  0  0  0  0  0  0
    4.9120   23.6840    5.1030 H   0  0  0  0  0  0  0  0  0  0  0  0
    3.3260   23.2300    5.7480 H   0  0  0  0  0  0  0  0  0  0  0  0
  1 24  1  0  0  0  0
  1  2  1  0  0  0  0
  2 25  1  0  0  0  0
  2  3  1  0  0  0  0
  3  4  2  0  0  0  0
  3  5  1  0  0  0  0
  5 26  1  0  0  0  0
  5  6  2  0  0  0  0
  6 27  1  0  0  0  0
  6  7  1  0  0  0  0
  7  8  2  0  0  0  0
  8 28  1  0  0  0  0
  8  9  1  0  0  0  0
  9 29  1  0  0  0  0
  9 10  2  0  0  0  0
 10 11  1  0  0  0  0
 11 30  1  0  0  0  0
 11 12  2  0  0  0  0
 12  7  1  0  0  0  0
 12 31  1  0  0  0  0
 10 13  1  0  0  0  0
 13 32  1  0  0  0  0
 13 14  1  0  0  0  0
 14 15  2  0  0  0  0
 14 16  2  0  0  0  0
 14 17  1  0  0  0  0
 17 18  2  0  0  0  0
 18 33  1  0  0  0  0
 18 19  1  0  0  0  0
 19 20  2  0  0  0  0
 20 34  1  0  0  0  0
 20 21  1  0  0  0  0
 21 35  1  0  0  0  0
 21 22  2  0  0  0  0
 22 17  1  0  0  0  0
 22 36  1  0  0  0  0
 19 23  1  0  0  0  0
 23 37  1  0  0  0  0
 23 38  1  0  0  0  0
 23 39  1  0  0  0  0
M  END
>  <EXTREG>  (Row39_000)
Row39_000

>  <Similarity>  (Row39_000)
7.4533

>  <RMSD_ISO>  (Row39_000)
0.0000

>  <STRAIN>  (Row39_000)
0.0000

>  <ID>  (Row39_000)
M039

>  <IC50>  (Row39_000)
100.0000

>  <pIC50>  (Row39_000)
7.0000

$$$$
Row40_000
  -MTS-   08231913523D 0   0.00000     0.00000     0

 48 49  0  0  0  0  0  0  0  0999 V2000
    2.1270   17.5590   -5.6750 O   0  0  0  0  0  0  0  0  0  0  0  0
    2.5980   18.7360   -5.3600 N   0  0  0  0  0  0  0  0  0  0  0  0
    1.8490   19.6970   -4.8490 C   0  0  0  0  0  0  0  0  0  0  0  0
    0.6520   19.4980   -4.6780 O   0  0  0  0  0  0  0  0  0  0  0  0
    2.4080   20.9060   -4.5750 C   0  0  0  0  0  0  0  0  0  0  0  0
    2.5760   21.4120   -3.3360 C   0  0  0  0  0  0  0  0  0  0  0  0
    3.1230   22.6620   -3.0190 C   0  0  0  0  0  0  0  0  0  0  0  0
    4.4120   22.7220   -2.4360 C   0  0  0  0  0  0  0  0  0  0  0  0
    5.0010   23.9530   -2.0900 C   0  0  0  0  0  0  0  0  0  0  0  0
    4.3170   25.1680   -2.2980 C   0  0  0  0  0  0  0  0  0  0  0  0
    3.0270   25.1190   -2.8710 C   0  0  0  0  0  0  0  0  0  0  0  0
    2.4390   23.8890   -3.2210 C   0  0  0  0  0  0  0  0  0  0  0  0
    4.9560   26.3130   -1.9230 N   0  0  0  0  0  0  0  0  0  0  0  0
    4.3790   27.4760   -0.8460 S   0  0  0  0  0  0  0  0  0  0  0  0
    3.2320   28.3470   -1.5210 O   0  0  0  0  0  0  0  0  0  0  0  0
    5.5960   28.4780   -0.6310 O   0  0  0  0  0  0  0  0  0  0  0  0
    3.9800   26.8310    0.7210 C   0  0  0  0  0  0  0  0  0  0  0  0
    4.4300   25.5520    1.0930 C   0  0  0  0  0  0  0  0  0  0  0  0
    4.0870   25.0150    2.3470 C   0  0  0  0  0  0  0  0  0  0  0  0
    3.2720   25.7240    3.2730 C   0  0  0  0  0  0  0  0  0  0  0  0
    2.8340   27.0140    2.8660 C   0  0  0  0  0  0  0  0  0  0  0  0
    3.1780   27.5600    1.6170 C   0  0  0  0  0  0  0  0  0  0  0  0
    2.8600   25.1700    4.6300 C   0  0  0  0  0  0  0  0  0  0  0  0
    3.4850   26.0440    5.7710 C   0  0  0  0  0  0  0  0  0  0  0  0
    3.3160   23.6920    4.8960 C   0  0  0  0  0  0  0  0  0  0  0  0
    1.2990   25.1880    4.7500 C   0  0  0  0  0  0  0  0  0  0  0  0
    2.3580   16.9870   -4.9140 H   0  0  0  0  0  0  0  0  0  0  0  0
    3.5420   18.9080   -5.5090 H   0  0  0  0  0  0  0  0  0  0  0  0
    2.7550   21.4250   -5.3490 H   0  0  0  0  0  0  0  0  0  0  0  0
    2.3170   20.8290   -2.5680 H   0  0  0  0  0  0  0  0  0  0  0  0
    4.9460   21.8660   -2.2670 H   0  0  0  0  0  0  0  0  0  0  0  0
    5.9380   23.9540   -1.6800 H   0  0  0  0  0  0  0  0  0  0  0  0
    2.4970   25.9770   -3.0410 H   0  0  0  0  0  0  0  0  0  0  0  0
    1.4920   23.9070   -3.6030 H   0  0  0  0  0  0  0  0  0  0  0  0
    5.8590   26.4420   -2.2540 H   0  0  0  0  0  0  0  0  0  0  0  0
    5.0100   25.0030    0.4530 H   0  0  0  0  0  0  0  0  0  0  0  0
    4.4430   24.0840    2.5600 H   0  0  0  0  0  0  0  0  0  0  0  0
    2.2440   27.5800    3.4790 H   0  0  0  0  0  0  0  0  0  0  0  0
    2.8330   28.4890    1.3650 H   0  0  0  0  0  0  0  0  0  0  0  0
    3.2360   25.6410    6.7550 H   0  0  0  0  0  0  0  0  0  0  0  0
    3.1180   27.0700    5.7410 H   0  0  0  0  0  0  0  0  0  0  0  0
    4.5730   26.0700    5.6800 H   0  0  0  0  0  0  0  0  0  0  0  0
    2.9920   23.3480    5.8820 H   0  0  0  0  0  0  0  0  0  0  0  0
    2.8870   23.0130    4.1560 H   0  0  0  0  0  0  0  0  0  0  0  0
    4.4040   23.6070    4.8580 H   0  0  0  0  0  0  0  0  0  0  0  0
    0.9730   24.7770    5.7090 H   0  0  0  0  0  0  0  0  0  0  0  0
    0.8480   24.5900    3.9540 H   0  0  0  0  0  0  0  0  0  0  0  0
    0.9000   26.2000    4.6800 H   0  0  0  0  0  0  0  0  0  0  0  0
  1 27  1  0  0  0  0
  1  2  1  0  0  0  0
  2 28  1  0  0  0  0
  2  3  1  0  0  0  0
  3  4  2  0  0  0  0
  3  5  1  0  0  0  0
  5 29  1  0  0  0  0
  5  6  2  0  0  0  0
  6 30  1  0  0  0  0
  6  7  1  0  0  0  0
  7  8  2  0  0  0  0
  8 31  1  0  0  0  0
  8  9  1  0  0  0  0
  9 32  1  0  0  0  0
  9 10  2  0  0  0  0
 10 11  1  0  0  0  0
 11 33  1  0  0  0  0
 11 12  2  0  0  0  0
 12  7  1  0  0  0  0
 12 34  1  0  0  0  0
 10 13  1  0  0  0  0
 13 35  1  0  0  0  0
 13 14  1  0  0  0  0
 14 15  2  0  0  0  0
 14 16  2  0  0  0  0
 14 17  1  0  0  0  0
 17 18  2  0  0  0  0
 18 36  1  0  0  0  0
 18 19  1  0  0  0  0
 19 37  1  0  0  0  0
 19 20  2  0  0  0  0
 20 21  1  0  0  0  0
 21 38  1  0  0  0  0
 21 22  2  0  0  0  0
 22 17  1  0  0  0  0
 22 39  1  0  0  0  0
 20 23  1  0  0  0  0
 23 24  1  0  0  0  0
 24 40  1  0  0  0  0
 24 41  1  0  0  0  0
 24 42  1  0  0  0  0
 23 25  1  0  0  0  0
 25 43  1  0  0  0  0
 25 44  1  0  0  0  0
 25 45  1  0  0  0  0
 23 26  1  0  0  0  0
 26 46  1  0  0  0  0
 26 47  1  0  0  0  0
 26 48  1  0  0  0  0
M  END
>  <EXTREG>  (Row40_000)
Row40_000

>  <Similarity>  (Row40_000)
7.2331

>  <RMSD_ISO>  (Row40_000)
0.0000

>  <STRAIN>  (Row40_000)
0.0000

>  <ID>  (Row40_000)
M040

>  <IC50>  (Row40_000)
100.0000

>  <pIC50>  (Row40_000)
7.0000

$$$$
Row41_000
  -MTS-   08231913523D 0   0.00000     0.00000     0

 63 64  0  0  0  0  0  0  0  0999 V2000
    2.2910   18.4260   -6.2620 O   0  0  0  0  0  0  0  0  0  0  0  0
    2.7690   19.2900   -5.4110 N   0  0  0  0  0  0  0  0  0  0  0  0
    2.1150   19.6740   -4.3270 C   0  0  0  0  0  0  0  0  0  0  0  0
    1.0010   19.2110   -4.1030 O   0  0  0  0  0  0  0  0  0  0  0  0
    2.6870   20.5890   -3.4970 C   0  0  0  0  0  0  0  0  0  0  0  0
    3.9450   20.5210   -3.0170 C   0  0  0  0  0  0  0  0  0  0  0  0
    4.5700   21.4570   -2.1800 C   0  0  0  0  0  0  0  0  0  0  0  0
    5.0580   22.6620   -2.7440 C   0  0  0  0  0  0  0  0  0  0  0  0
    5.6620   23.6520   -1.9460 C   0  0  0  0  0  0  0  0  0  0  0  0
    5.8090   23.4730   -0.5540 C   0  0  0  0  0  0  0  0  0  0  0  0
    5.3600   22.2590    0.0100 C   0  0  0  0  0  0  0  0  0  0  0  0
    4.7540   21.2690   -0.7860 C   0  0  0  0  0  0  0  0  0  0  0  0
    6.3860   24.4850    0.1520 N   0  0  0  0  0  0  0  0  0  0  0  0
    5.6270   25.8870    0.7020 S   0  0  0  0  0  0  0  0  0  0  0  0
    4.7550   26.4870   -0.4860 O   0  0  0  0  0  0  0  0  0  0  0  0
    6.8190   26.9270    0.8700 O   0  0  0  0  0  0  0  0  0  0  0  0
    4.7820   25.8140    2.2370 C   0  0  0  0  0  0  0  0  0  0  0  0
    3.4590   25.3110    2.3980 C   0  0  0  0  0  0  0  0  0  0  0  0
    2.9370   25.2620    3.7130 C   0  0  0  0  0  0  0  0  0  0  0  0
    3.6500   25.6950    4.8590 C   0  0  0  0  0  0  0  0  0  0  0  0
    4.9260   26.3110    4.6670 C   0  0  0  0  0  0  0  0  0  0  0  0
    5.7330   26.9790    5.7560 C   0  0  0  0  0  0  0  0  0  0  0  0
    6.8070   26.0120    6.3280 C   0  0  0  0  0  0  0  0  0  0  0  0
    6.3570   28.3460    5.3430 C   0  0  0  0  0  0  0  0  0  0  0  0
    5.4770   26.2960    3.3640 C   0  0  0  0  0  0  0  0  0  0  0  0
    3.0100   25.4610    6.2090 C   0  0  0  0  0  0  0  0  0  0  0  0
    1.9690   26.5680    6.5330 C   0  0  0  0  0  0  0  0  0  0  0  0
    2.4040   24.0340    6.3870 C   0  0  0  0  0  0  0  0  0  0  0  0
    2.6110   24.7850    1.2680 C   0  0  0  0  0  0  0  0  0  0  0  0
    2.3660   23.2570    1.4160 C   0  0  0  0  0  0  0  0  0  0  0  0
    1.2790   25.5650    1.0730 C   0  0  0  0  0  0  0  0  0  0  0  0
    2.7560   17.5880   -6.0500 H   0  0  0  0  0  0  0  0  0  0  0  0
    3.6480   19.6650   -5.5840 H   0  0  0  0  0  0  0  0  0  0  0  0
    2.1400   21.3880   -3.2750 H   0  0  0  0  0  0  0  0  0  0  0  0
    4.5050   19.7560   -3.3210 H   0  0  0  0  0  0  0  0  0  0  0  0
    4.9580   22.8460   -3.7480 H   0  0  0  0  0  0  0  0  0  0  0  0
    5.9860   24.5160   -2.3900 H   0  0  0  0  0  0  0  0  0  0  0  0
    5.4720   22.0750    1.0080 H   0  0  0  0  0  0  0  0  0  0  0  0
    4.4690   20.4030   -0.3240 H   0  0  0  0  0  0  0  0  0  0  0  0
    7.3440   24.4240    0.3040 H   0  0  0  0  0  0  0  0  0  0  0  0
    1.9990   24.8760    3.8430 H   0  0  0  0  0  0  0  0  0  0  0  0
    5.0860   27.2520    6.5910 H   0  0  0  0  0  0  0  0  0  0  0  0
    7.3410   26.4820    7.1580 H   0  0  0  0  0  0  0  0  0  0  0  0
    6.3330   25.1000    6.7020 H   0  0  0  0  0  0  0  0  0  0  0  0
    7.5370   25.7380    5.5600 H   0  0  0  0  0  0  0  0  0  0  0  0
    6.7280   28.8750    6.2260 H   0  0  0  0  0  0  0  0  0  0  0  0
    5.6010   28.9750    4.8610 H   0  0  0  0  0  0  0  0  0  0  0  0
    7.1990   28.2150    4.6550 H   0  0  0  0  0  0  0  0  0  0  0  0
    6.4190   26.6600    3.2270 H   0  0  0  0  0  0  0  0  0  0  0  0
    3.7610   25.5020    6.9960 H   0  0  0  0  0  0  0  0  0  0  0  0
    1.5640   26.4260    7.5360 H   0  0  0  0  0  0  0  0  0  0  0  0
    2.4460   27.5510    6.4960 H   0  0  0  0  0  0  0  0  0  0  0  0
    1.1430   26.5520    5.8200 H   0  0  0  0  0  0  0  0  0  0  0  0
    2.1490   23.8610    7.4340 H   0  0  0  0  0  0  0  0  0  0  0  0
    3.1350   23.2780    6.0860 H   0  0  0  0  0  0  0  0  0  0  0  0
    1.4950   23.9030    5.7970 H   0  0  0  0  0  0  0  0  0  0  0  0
    3.1310   24.9070    0.3200 H   0  0  0  0  0  0  0  0  0  0  0  0
    1.8290   22.8710    0.5460 H   0  0  0  0  0  0  0  0  0  0  0  0
    3.3220   22.7290    1.4880 H   0  0  0  0  0  0  0  0  0  0  0  0
    1.7790   23.0370    2.3100 H   0  0  0  0  0  0  0  0  0  0  0  0
    0.8010   25.2670    0.1360 H   0  0  0  0  0  0  0  0  0  0  0  0
    1.4740   26.6410    1.0270 H   0  0  0  0  0  0  0  0  0  0  0  0
    0.5770   25.3710    1.8870 H   0  0  0  0  0  0  0  0  0  0  0  0
  1 32  1  0  0  0  0
  1  2  1  0  0  0  0
  2 33  1  0  0  0  0
  2  3  1  0  0  0  0
  3  4  2  0  0  0  0
  3  5  1  0  0  0  0
  5 34  1  0  0  0  0
  5  6  2  0  0  0  0
  6 35  1  0  0  0  0
  6  7  1  0  0  0  0
  7  8  2  0  0  0  0
  8 36  1  0  0  0  0
  8  9  1  0  0  0  0
  9 37  1  0  0  0  0
  9 10  2  0  0  0  0
 10 11  1  0  0  0  0
 11 38  1  0  0  0  0
 11 12  2  0  0  0  0
 12  7  1  0  0  0  0
 12 39  1  0  0  0  0
 10 13  1  0  0  0  0
 13 40  1  0  0  0  0
 13 14  1  0  0  0  0
 14 15  2  0  0  0  0
 14 16  2  0  0  0  0
 14 17  1  0  0  0  0
 17 18  2  0  0  0  0
 18 19  1  0  0  0  0
 19 41  1  0  0  0  0
 19 20  2  0  0  0  0
 20 21  1  0  0  0  0
 21 22  1  0  0  0  0
 22 42  1  0  0  0  0
 22 23  1  0  0  0  0
 23 43  1  0  0  0  0
 23 44  1  0  0  0  0
 23 45  1  0  0  0  0
 22 24  1  0  0  0  0
 24 46  1  0  0  0  0
 24 47  1  0  0  0  0
 24 48  1  0  0  0  0
 21 25  2  0  0  0  0
 25 17  1  0  0  0  0
 25 49  1  0  0  0  0
 20 26  1  0  0  0  0
 26 50  1  0  0  0  0
 26 27  1  0  0  0  0
 27 51  1  0  0  0  0
 27 52  1  0  0  0  0
 27 53  1  0  0  0  0
 26 28  1  0  0  0  0
 28 54  1  0  0  0  0
 28 55  1  0  0  0  0
 28 56  1  0  0  0  0
 18 29  1  0  0  0  0
 29 57  1  0  0  0  0
 29 30  1  0  0  0  0
 30 58  1  0  0  0  0
 30 59  1  0  0  0  0
 30 60  1  0  0  0  0
 29 31  1  0  0  0  0
 31 61  1  0  0  0  0
 31 62  1  0  0  0  0
 31 63  1  0  0  0  0
M  END
>  <EXTREG>  (Row41_000)
Row41_000

>  <Similarity>  (Row41_000)
6.8359

>  <RMSD_ISO>  (Row41_000)
0.0000

>  <STRAIN>  (Row41_000)
0.0000

>  <ID>  (Row41_000)
M041

>  <IC50>  (Row41_000)
600.0000

>  <pIC50>  (Row41_000)
6.2218

$$$$
Row42_000
  -MTS-   08231913523D 0   0.00000     0.00000     0

 40 41  0  0  0  0  0  0  0  0999 V2000
    2.6090   17.1530   -6.1820 O   0  0  0  0  0  0  0  0  0  0  0  0
    2.8920   18.3050   -5.6350 N   0  0  0  0  0  0  0  0  0  0  0  0
    1.9900   19.0470   -5.0160 C   0  0  0  0  0  0  0  0  0  0  0  0
    0.8380   18.6360   -4.9200 O   0  0  0  0  0  0  0  0  0  0  0  0
    2.3640   20.2340   -4.4640 C   0  0  0  0  0  0  0  0  0  0  0  0
    3.1190   20.3620   -3.3550 C   0  0  0  0  0  0  0  0  0  0  0  0
    3.5190   21.5590   -2.7410 C   0  0  0  0  0  0  0  0  0  0  0  0
    3.0190   21.8650   -1.4510 C   0  0  0  0  0  0  0  0  0  0  0  0
    3.3710   23.0570   -0.7920 C   0  0  0  0  0  0  0  0  0  0  0  0
    4.2510   23.9840   -1.3930 C   0  0  0  0  0  0  0  0  0  0  0  0
    4.7710   23.6790   -2.6670 C   0  0  0  0  0  0  0  0  0  0  0  0
    4.4130   22.4900   -3.3290 C   0  0  0  0  0  0  0  0  0  0  0  0
    4.6390   25.1630   -0.8290 N   0  0  0  0  0  0  0  0  0  0  0  0
    3.6340   26.3210   -0.1260 S   0  0  0  0  0  0  0  0  0  0  0  0
    2.2640   26.4230   -0.9260 O   0  0  0  0  0  0  0  0  0  0  0  0
    4.3510   27.7140   -0.3930 O   0  0  0  0  0  0  0  0  0  0  0  0
    3.4430   26.1470    1.5950 C   0  0  0  0  0  0  0  0  0  0  0  0
    2.2780   26.6290    2.2300 C   0  0  0  0  0  0  0  0  0  0  0  0
    2.1240   26.5020    3.6230 C   0  0  0  0  0  0  0  0  0  0  0  0
    3.1440   25.9130    4.3990 C   0  0  0  0  0  0  0  0  0  0  0  0
    4.3000   25.4170    3.7640 C   0  0  0  0  0  0  0  0  0  0  0  0
    4.4530   25.5390    2.3700 C   0  0  0  0  0  0  0  0  0  0  0  0
    2.9920   25.7620    5.7510 O   0  0  0  0  0  0  0  0  0  0  0  0
    2.3000   24.5560    6.1130 C   0  0  0  0  0  0  0  0  0  0  0  0
    2.9900   16.4890   -5.5690 H   0  0  0  0  0  0  0  0  0  0  0  0
    3.8040   18.6310   -5.6960 H   0  0  0  0  0  0  0  0  0  0  0  0
    2.0100   21.0560   -4.8940 H   0  0  0  0  0  0  0  0  0  0  0  0
    3.3910   19.5190   -2.9000 H   0  0  0  0  0  0  0  0  0  0  0  0
    2.3760   21.2240   -0.9750 H   0  0  0  0  0  0  0  0  0  0  0  0
    2.9760   23.2350    0.1310 H   0  0  0  0  0  0  0  0  0  0  0  0
    5.4160   24.3280   -3.1270 H   0  0  0  0  0  0  0  0  0  0  0  0
    4.8310   22.3150   -4.2450 H   0  0  0  0  0  0  0  0  0  0  0  0
    5.5850   25.3780   -0.8660 H   0  0  0  0  0  0  0  0  0  0  0  0
    1.5340   27.0700    1.6830 H   0  0  0  0  0  0  0  0  0  0  0  0
    1.2710   26.8440    4.0740 H   0  0  0  0  0  0  0  0  0  0  0  0
    5.0350   24.9700    4.3170 H   0  0  0  0  0  0  0  0  0  0  0  0
    5.3010   25.1790    1.9290 H   0  0  0  0  0  0  0  0  0  0  0  0
    2.2150   24.5260    7.1990 H   0  0  0  0  0  0  0  0  0  0  0  0
    1.2910   24.5350    5.6910 H   0  0  0  0  0  0  0  0  0  0  0  0
    2.8480   23.6690    5.7900 H   0  0  0  0  0  0  0  0  0  0  0  0
  1 25  1  0  0  0  0
  1  2  1  0  0  0  0
  2 26  1  0  0  0  0
  2  3  1  0  0  0  0
  3  4  2  0  0  0  0
  3  5  1  0  0  0  0
  5 27  1  0  0  0  0
  5  6  2  0  0  0  0
  6 28  1  0  0  0  0
  6  7  1  0  0  0  0
  7  8  2  0  0  0  0
  8 29  1  0  0  0  0
  8  9  1  0  0  0  0
  9 30  1  0  0  0  0
  9 10  2  0  0  0  0
 10 11  1  0  0  0  0
 11 31  1  0  0  0  0
 11 12  2  0  0  0  0
 12  7  1  0  0  0  0
 12 32  1  0  0  0  0
 10 13  1  0  0  0  0
 13 33  1  0  0  0  0
 13 14  1  0  0  0  0
 14 15  2  0  0  0  0
 14 16  2  0  0  0  0
 14 17  1  0  0  0  0
 17 18  2  0  0  0  0
 18 34  1  0  0  0  0
 18 19  1  0  0  0  0
 19 35  1  0  0  0  0
 19 20  2  0  0  0  0
 20 21  1  0  0  0  0
 21 36  1  0  0  0  0
 21 22  2  0  0  0  0
 22 17  1  0  0  0  0
 22 37  1  0  0  0  0
 20 23  1  0  0  0  0
 23 24  1  0  0  0  0
 24 38  1  0  0  0  0
 24 39  1  0  0  0  0
 24 40  1  0  0  0  0
M  END
>  <EXTREG>  (Row42_000)
Row42_000

>  <Similarity>  (Row42_000)
6.9564

>  <RMSD_ISO>  (Row42_000)
0.0000

>  <STRAIN>  (Row42_000)
0.0000

>  <ID>  (Row42_000)
M042

>  <IC50>  (Row42_000)
60.0000

>  <pIC50>  (Row42_000)
7.2218

$$$$
Row43_000
  -MTS-   08231913523D 0   0.00000     0.00000     0

 44 45  0  0  0  0  0  0  0  0999 V2000
    2.3400   17.4280   -5.9990 O   0  0  0  0  0  0  0  0  0  0  0  0
    2.6400   18.5340   -5.3720 N   0  0  0  0  0  0  0  0  0  0  0  0
    1.7610   19.2210   -4.6630 C   0  0  0  0  0  0  0  0  0  0  0  0
    0.6030   18.8220   -4.5960 O   0  0  0  0  0  0  0  0  0  0  0  0
    2.1470   20.3760   -4.0560 C   0  0  0  0  0  0  0  0  0  0  0  0
    2.7730   20.4470   -2.8640 C   0  0  0  0  0  0  0  0  0  0  0  0
    3.1750   21.6040   -2.1760 C   0  0  0  0  0  0  0  0  0  0  0  0
    3.6850   22.6970   -2.9240 C   0  0  0  0  0  0  0  0  0  0  0  0
    4.1180   23.8800   -2.2970 C   0  0  0  0  0  0  0  0  0  0  0  0
    4.0760   24.0120   -0.8940 C   0  0  0  0  0  0  0  0  0  0  0  0
    3.5650   22.9340   -0.1370 C   0  0  0  0  0  0  0  0  0  0  0  0
    3.1250   21.7540   -0.7650 C   0  0  0  0  0  0  0  0  0  0  0  0
    4.5290   25.1870   -0.3730 N   0  0  0  0  0  0  0  0  0  0  0  0
    3.6050   26.4440    0.2730 S   0  0  0  0  0  0  0  0  0  0  0  0
    2.3010   26.7460   -0.5870 O   0  0  0  0  0  0  0  0  0  0  0  0
    4.4910   27.7400    0.0120 O   0  0  0  0  0  0  0  0  0  0  0  0
    3.2570   26.3050    1.9770 C   0  0  0  0  0  0  0  0  0  0  0  0
    1.9320   26.3470    2.4570 C   0  0  0  0  0  0  0  0  0  0  0  0
    1.6710   26.2480    3.8360 C   0  0  0  0  0  0  0  0  0  0  0  0
    2.7300   26.1110    4.7550 C   0  0  0  0  0  0  0  0  0  0  0  0
    4.0590   26.0300    4.2790 C   0  0  0  0  0  0  0  0  0  0  0  0
    5.1090   25.8980    5.1470 O   0  0  0  0  0  0  0  0  0  0  0  0
    5.8950   27.0940    5.2760 C   0  0  0  0  0  0  0  0  0  0  0  0
    4.3140   26.1470    2.8970 C   0  0  0  0  0  0  0  0  0  0  0  0
    2.4480   25.9910    6.0880 O   0  0  0  0  0  0  0  0  0  0  0  0
    1.8990   24.7110    6.4440 C   0  0  0  0  0  0  0  0  0  0  0  0
    2.6060   16.7140   -5.3830 H   0  0  0  0  0  0  0  0  0  0  0  0
    3.5520   18.8620   -5.4300 H   0  0  0  0  0  0  0  0  0  0  0  0
    1.9760   21.2170   -4.5540 H   0  0  0  0  0  0  0  0  0  0  0  0
    2.9840   19.5780   -2.4250 H   0  0  0  0  0  0  0  0  0  0  0  0
    3.7490   22.6470   -3.9450 H   0  0  0  0  0  0  0  0  0  0  0  0
    4.4810   24.6420   -2.8760 H   0  0  0  0  0  0  0  0  0  0  0  0
    3.5060   22.9920    0.8800 H   0  0  0  0  0  0  0  0  0  0  0  0
    2.7760   21.0070   -0.1630 H   0  0  0  0  0  0  0  0  0  0  0  0
    5.4850   25.2480   -0.2200 H   0  0  0  0  0  0  0  0  0  0  0  0
    1.1470   26.4510    1.8120 H   0  0  0  0  0  0  0  0  0  0  0  0
    0.7060   26.2790    4.1720 H   0  0  0  0  0  0  0  0  0  0  0  0
    6.6730   26.9100    6.0160 H   0  0  0  0  0  0  0  0  0  0  0  0
    6.3790   27.3490    4.3300 H   0  0  0  0  0  0  0  0  0  0  0  0
    5.2920   27.9380    5.6180 H   0  0  0  0  0  0  0  0  0  0  0  0
    5.2790   26.1090    2.5690 H   0  0  0  0  0  0  0  0  0  0  0  0
    1.7730   24.6860    7.5270 H   0  0  0  0  0  0  0  0  0  0  0  0
    0.9190   24.5600    5.9850 H   0  0  0  0  0  0  0  0  0  0  0  0
    2.5650   23.8930    6.1600 H   0  0  0  0  0  0  0  0  0  0  0  0
  1 27  1  0  0  0  0
  1  2  1  0  0  0  0
  2 28  1  0  0  0  0
  2  3  1  0  0  0  0
  3  4  2  0  0  0  0
  3  5  1  0  0  0  0
  5 29  1  0  0  0  0
  5  6  2  0  0  0  0
  6 30  1  0  0  0  0
  6  7  1  0  0  0  0
  7  8  2  0  0  0  0
  8 31  1  0  0  0  0
  8  9  1  0  0  0  0
  9 32  1  0  0  0  0
  9 10  2  0  0  0  0
 10 11  1  0  0  0  0
 11 33  1  0  0  0  0
 11 12  2  0  0  0  0
 12  7  1  0  0  0  0
 12 34  1  0  0  0  0
 10 13  1  0  0  0  0
 13 35  1  0  0  0  0
 13 14  1  0  0  0  0
 14 15  2  0  0  0  0
 14 16  2  0  0  0  0
 14 17  1  0  0  0  0
 17 18  2  0  0  0  0
 18 36  1  0  0  0  0
 18 19  1  0  0  0  0
 19 37  1  0  0  0  0
 19 20  2  0  0  0  0
 20 21  1  0  0  0  0
 21 22  1  0  0  0  0
 22 23  1  0  0  0  0
 23 38  1  0  0  0  0
 23 39  1  0  0  0  0
 23 40  1  0  0  0  0
 21 24  2  0  0  0  0
 24 17  1  0  0  0  0
 24 41  1  0  0  0  0
 20 25  1  0  0  0  0
 25 26  1  0  0  0  0
 26 42  1  0  0  0  0
 26 43  1  0  0  0  0
 26 44  1  0  0  0  0
M  END
>  <EXTREG>  (Row43_000)
Row43_000

>  <Similarity>  (Row43_000)
6.8465

>  <RMSD_ISO>  (Row43_000)
0.0000

>  <STRAIN>  (Row43_000)
0.0000

>  <ID>  (Row43_000)
M043

>  <IC50>  (Row43_000)
90.0000

>  <pIC50>  (Row43_000)
7.0458

$$$$
Row44_000
  -MTS-   08231913523D 0   0.00000     0.00000     0

 26 26  0  0  0  0  0  0  0  0999 V2000
    1.7090   17.8840   -6.1800 O   0  0  0  0  0  0  0  0  0  0  0  0
    2.4430   18.7500   -5.5330 N   0  0  0  0  0  0  0  0  0  0  0  0
    1.9450   19.5850   -4.6400 C   0  0  0  0  0  0  0  0  0  0  0  0
    0.7450   19.5600   -4.3900 O   0  0  0  0  0  0  0  0  0  0  0  0
    2.8470   20.5090   -3.9650 C   0  0  0  0  0  0  0  0  0  0  0  0
    2.3340   21.0880   -2.6170 C   0  0  0  0  0  0  0  0  0  0  0  0
    3.1470   22.2300   -2.1230 C   0  0  0  0  0  0  0  0  0  0  0  0
    2.7150   23.5580   -2.1410 C   0  0  0  0  0  0  0  0  0  0  0  0
    3.7010   24.3420   -1.5550 C   0  0  0  0  0  0  0  0  0  0  0  0
    4.7110   23.4610   -1.1830 C   0  0  0  0  0  0  0  0  0  0  0  0
    4.3670   22.1990   -1.5320 N   0  0  0  0  0  0  0  0  0  0  0  0
    5.1700   21.0410   -1.2760 C   0  0  0  0  0  0  0  0  0  0  0  0
    3.6550   25.7080   -1.3720 C   0  0  0  0  0  0  0  0  0  0  0  0
    2.5970   26.3200   -1.3470 O   0  0  0  0  0  0  0  0  0  0  0  0
    2.0870   17.0120   -5.9370 H   0  0  0  0  0  0  0  0  0  0  0  0
    3.3960   18.7780   -5.7180 H   0  0  0  0  0  0  0  0  0  0  0  0
    3.7900   19.9850   -3.7910 H   0  0  0  0  0  0  0  0  0  0  0  0
    3.0470   21.3440   -4.6430 H   0  0  0  0  0  0  0  0  0  0  0  0
    1.2970   21.4120   -2.7510 H   0  0  0  0  0  0  0  0  0  0  0  0
    2.3330   20.3070   -1.8540 H   0  0  0  0  0  0  0  0  0  0  0  0
    1.8240   23.8950   -2.5150 H   0  0  0  0  0  0  0  0  0  0  0  0
    5.5750   23.7340   -0.7120 H   0  0  0  0  0  0  0  0  0  0  0  0
    5.5140   20.6140   -2.2210 H   0  0  0  0  0  0  0  0  0  0  0  0
    4.5850   20.2900   -0.7380 H   0  0  0  0  0  0  0  0  0  0  0  0
    6.0470   21.2780   -0.6680 H   0  0  0  0  0  0  0  0  0  0  0  0
    4.4940   26.2260   -1.2720 H   0  0  0  0  0  0  0  0  0  0  0  0
  1 15  1  0  0  0  0
  1  2  1  0  0  0  0
  2 16  1  0  0  0  0
  2  3  1  0  0  0  0
  3  4  2  0  0  0  0
  3  5  1  0  0  0  0
  5 17  1  0  0  0  0
  5 18  1  0  0  0  0
  5  6  1  0  0  0  0
  6 19  1  0  0  0  0
  6 20  1  0  0  0  0
  6  7  1  0  0  0  0
  7  8  2  0  0  0  0
  8 21  1  0  0  0  0
  8  9  1  0  0  0  0
  9 10  2  0  0  0  0
 10 22  1  0  0  0  0
 10 11  1  0  0  0  0
 11  7  1  0  0  0  0
 11 12  1  0  0  0  0
 12 23  1  0  0  0  0
 12 24  1  0  0  0  0
 12 25  1  0  0  0  0
  9 13  1  0  0  0  0
 13 26  1  0  0  0  0
 13 14  2  0  0  0  0
M  END
>  <EXTREG>  (Row44_000)
Row44_000

>  <Similarity>  (Row44_000)
7.5901

>  <RMSD_ISO>  (Row44_000)
0.0000

>  <STRAIN>  (Row44_000)
0.0000

>  <ID>  (Row44_000)
M044

>  <IC50>  (Row44_000)
52560.0000

>  <pIC50>  (Row44_000)
4.2793

$$$$
Row45_000
  -MTS-   08231913523D 0   0.00000     0.00000     0

 24 24  0  0  0  0  0  0  0  0999 V2000
    2.0790   18.0480   -6.4440 O   0  0  0  0  0  0  0  0  0  0  0  0
    2.5360   18.8340   -5.5090 N   0  0  0  0  0  0  0  0  0  0  0  0
    1.7580   19.3870   -4.5910 C   0  0  0  0  0  0  0  0  0  0  0  0
    0.5580   19.1280   -4.5940 O   0  0  0  0  0  0  0  0  0  0  0  0
    2.3200   20.1890   -3.6420 C   0  0  0  0  0  0  0  0  0  0  0  0
    2.8900   21.3870   -3.8770 C   0  0  0  0  0  0  0  0  0  0  0  0
    3.4650   22.2330   -2.9260 C   0  0  0  0  0  0  0  0  0  0  0  0
    3.0680   23.5700   -2.8200 C   0  0  0  0  0  0  0  0  0  0  0  0
    3.7800   24.1680   -1.7900 C   0  0  0  0  0  0  0  0  0  0  0  0
    4.5940   23.1670   -1.2720 C   0  0  0  0  0  0  0  0  0  0  0  0
    4.3980   22.0150   -1.9540 N   0  0  0  0  0  0  0  0  0  0  0  0
    5.0530   20.7930   -1.5870 C   0  0  0  0  0  0  0  0  0  0  0  0
    3.6790   25.4760   -1.3740 C   0  0  0  0  0  0  0  0  0  0  0  0
    2.6610   26.1310   -1.5460 O   0  0  0  0  0  0  0  0  0  0  0  0
    2.4970   17.1810   -6.2680 H   0  0  0  0  0  0  0  0  0  0  0  0
    3.4890   19.0140   -5.4850 H   0  0  0  0  0  0  0  0  0  0  0  0
    2.3400   19.8340   -2.7160 H   0  0  0  0  0  0  0  0  0  0  0  0
    2.9500   21.6880   -4.8250 H   0  0  0  0  0  0  0  0  0  0  0  0
    2.3750   24.0380   -3.4080 H   0  0  0  0  0  0  0  0  0  0  0  0
    5.2310   23.2870   -0.4810 H   0  0  0  0  0  0  0  0  0  0  0  0
    5.8220   20.5460   -2.3250 H   0  0  0  0  0  0  0  0  0  0  0  0
    4.3260   19.9770   -1.5300 H   0  0  0  0  0  0  0  0  0  0  0  0
    5.5400   20.8620   -0.6050 H   0  0  0  0  0  0  0  0  0  0  0  0
    4.4420   25.9080   -0.9100 H   0  0  0  0  0  0  0  0  0  0  0  0
  1 15  1  0  0  0  0
  1  2  1  0  0  0  0
  2 16  1  0  0  0  0
  2  3  1  0  0  0  0
  3  4  2  0  0  0  0
  3  5  1  0  0  0  0
  5 17  1  0  0  0  0
  5  6  2  0  0  0  0
  6 18  1  0  0  0  0
  6  7  1  0  0  0  0
  7  8  2  0  0  0  0
  8 19  1  0  0  0  0
  8  9  1  0  0  0  0
  9 10  2  0  0  0  0
 10 20  1  0  0  0  0
 10 11  1  0  0  0  0
 11  7  1  0  0  0  0
 11 12  1  0  0  0  0
 12 21  1  0  0  0  0
 12 22  1  0  0  0  0
 12 23  1  0  0  0  0
  9 13  1  0  0  0  0
 13 24  1  0  0  0  0
 13 14  2  0  0  0  0
M  END
>  <EXTREG>  (Row45_000)
Row45_000

>  <Similarity>  (Row45_000)
7.6121

>  <RMSD_ISO>  (Row45_000)
0.0000

>  <STRAIN>  (Row45_000)
0.0000

>  <ID>  (Row45_000)
M045

>  <IC50>  (Row45_000)
12250.0000

>  <pIC50>  (Row45_000)
4.9119

$$$$
Row46_000
  -MTS-   08231913523D 0   0.00000     0.00000     0

 24 24  0  0  0  0  0  0  0  0999 V2000
    2.0650   18.0040   -6.4910 O   0  0  0  0  0  0  0  0  0  0  0  0
    2.5090   18.7950   -5.5560 N   0  0  0  0  0  0  0  0  0  0  0  0
    1.7230   19.3390   -4.6400 C   0  0  0  0  0  0  0  0  0  0  0  0
    0.5230   19.0880   -4.6670 O   0  0  0  0  0  0  0  0  0  0  0  0
    2.2690   20.1360   -3.6750 C   0  0  0  0  0  0  0  0  0  0  0  0
    2.8000   21.3540   -3.8920 C   0  0  0  0  0  0  0  0  0  0  0  0
    3.3440   22.2100   -2.9320 C   0  0  0  0  0  0  0  0  0  0  0  0
    2.5750   23.2310   -2.3610 C   0  0  0  0  0  0  0  0  0  0  0  0
    3.3480   23.9250   -1.4350 C   0  0  0  0  0  0  0  0  0  0  0  0
    4.5830   23.2820   -1.4510 C   0  0  0  0  0  0  0  0  0  0  0  0
    4.5700   22.2610   -2.3400 N   0  0  0  0  0  0  0  0  0  0  0  0
    5.6990   21.3960   -2.5290 C   0  0  0  0  0  0  0  0  0  0  0  0
    2.9610   25.0170   -0.6740 C   0  0  0  0  0  0  0  0  0  0  0  0
    2.5540   26.0390   -1.2110 O   0  0  0  0  0  0  0  0  0  0  0  0
    3.0450   25.0280    0.9890 Cl  0  0  0  0  0  0  0  0  0  0  0  0
    2.4400   17.1240   -6.2760 H   0  0  0  0  0  0  0  0  0  0  0  0
    3.4590   18.9870   -5.5310 H   0  0  0  0  0  0  0  0  0  0  0  0
    2.3060   19.7650   -2.7560 H   0  0  0  0  0  0  0  0  0  0  0  0
    2.8410   21.6730   -4.8360 H   0  0  0  0  0  0  0  0  0  0  0  0
    1.6030   23.4500   -2.5980 H   0  0  0  0  0  0  0  0  0  0  0  0
    5.3810   23.5440   -0.8680 H   0  0  0  0  0  0  0  0  0  0  0  0
    6.1730   21.6030   -3.4910 H   0  0  0  0  0  0  0  0  0  0  0  0
    5.3800   20.3520   -2.4980 H   0  0  0  0  0  0  0  0  0  0  0  0
    6.4550   21.5320   -1.7500 H   0  0  0  0  0  0  0  0  0  0  0  0
  1 16  1  0  0  0  0
  1  2  1  0  0  0  0
  2 17  1  0  0  0  0
  2  3  1  0  0  0  0
  3  4  2  0  0  0  0
  3  5  1  0  0  0  0
  5 18  1  0  0  0  0
  5  6  2  0  0  0  0
  6 19  1  0  0  0  0
  6  7  1  0  0  0  0
  7  8  2  0  0  0  0
  8 20  1  0  0  0  0
  8  9  1  0  0  0  0
  9 10  2  0  0  0  0
 10 21  1  0  0  0  0
 10 11  1  0  0  0  0
 11  7  1  0  0  0  0
 11 12  1  0  0  0  0
 12 22  1  0  0  0  0
 12 23  1  0  0  0  0
 12 24  1  0  0  0  0
  9 13  1  0  0  0  0
 13 14  2  0  0  0  0
 13 15  1  0  0  0  0
M  END
>  <EXTREG>  (Row46_000)
Row46_000

>  <Similarity>  (Row46_000)
7.4621

>  <RMSD_ISO>  (Row46_000)
0.0000

>  <STRAIN>  (Row46_000)
0.0000

>  <ID>  (Row46_000)
M046

>  <IC50>  (Row46_000)
9960.0000

>  <pIC50>  (Row46_000)
5.0017

$$$$
Row47_000
  -MTS-   08231913523D 0   0.00000     0.00000     0

 27 27  0  0  0  0  0  0  0  0999 V2000
    2.0060   17.9920   -6.4620 O   0  0  0  0  0  0  0  0  0  0  0  0
    2.5150   18.7640   -5.5420 N   0  0  0  0  0  0  0  0  0  0  0  0
    1.7860   19.3090   -4.5800 C   0  0  0  0  0  0  0  0  0  0  0  0
    0.5860   19.0640   -4.5300 O   0  0  0  0  0  0  0  0  0  0  0  0
    2.3920   20.1070   -3.6540 C   0  0  0  0  0  0  0  0  0  0  0  0
    2.4040   21.4540   -3.6820 C   0  0  0  0  0  0  0  0  0  0  0  0
    3.0220   22.2910   -2.7520 C   0  0  0  0  0  0  0  0  0  0  0  0
    2.3190   23.3370   -2.1480 C   0  0  0  0  0  0  0  0  0  0  0  0
    3.1600   23.9990   -1.2600 C   0  0  0  0  0  0  0  0  0  0  0  0
    4.3710   23.3150   -1.3350 C   0  0  0  0  0  0  0  0  0  0  0  0
    4.2790   22.3010   -2.2210 N   0  0  0  0  0  0  0  0  0  0  0  0
    5.3670   21.3950   -2.4540 C   0  0  0  0  0  0  0  0  0  0  0  0
    2.8520   25.1040   -0.4720 C   0  0  0  0  0  0  0  0  0  0  0  0
    2.4590   26.1310   -1.0150 O   0  0  0  0  0  0  0  0  0  0  0  0
    2.9910   25.1040    0.9730 C   0  0  0  0  0  0  0  0  0  0  0  0
    2.3820   17.1070   -6.2790 H   0  0  0  0  0  0  0  0  0  0  0  0
    3.4660   18.9480   -5.5740 H   0  0  0  0  0  0  0  0  0  0  0  0
    2.9020   19.6520   -2.9320 H   0  0  0  0  0  0  0  0  0  0  0  0
    1.9700   21.9030   -4.4570 H   0  0  0  0  0  0  0  0  0  0  0  0
    1.3450   23.5880   -2.3350 H   0  0  0  0  0  0  0  0  0  0  0  0
    5.2060   23.5470   -0.7940 H   0  0  0  0  0  0  0  0  0  0  0  0
    5.8230   21.6040   -3.4270 H   0  0  0  0  0  0  0  0  0  0  0  0
    5.0080   20.3620   -2.4330 H   0  0  0  0  0  0  0  0  0  0  0  0
    6.1520   21.4870   -1.6920 H   0  0  0  0  0  0  0  0  0  0  0  0
    2.7080   26.0690    1.4030 H   0  0  0  0  0  0  0  0  0  0  0  0
    2.3460   24.3360    1.4110 H   0  0  0  0  0  0  0  0  0  0  0  0
    4.0250   24.9040    1.2510 H   0  0  0  0  0  0  0  0  0  0  0  0
  1 16  1  0  0  0  0
  1  2  1  0  0  0  0
  2 17  1  0  0  0  0
  2  3  1  0  0  0  0
  3  4  2  0  0  0  0
  3  5  1  0  0  0  0
  5 18  1  0  0  0  0
  5  6  2  0  0  0  0
  6 19  1  0  0  0  0
  6  7  1  0  0  0  0
  7  8  2  0  0  0  0
  8 20  1  0  0  0  0
  8  9  1  0  0  0  0
  9 10  2  0  0  0  0
 10 21  1  0  0  0  0
 10 11  1  0  0  0  0
 11  7  1  0  0  0  0
 11 12  1  0  0  0  0
 12 22  1  0  0  0  0
 12 23  1  0  0  0  0
 12 24  1  0  0  0  0
  9 13  1  0  0  0  0
 13 14  2  0  0  0  0
 13 15  1  0  0  0  0
 15 25  1  0  0  0  0
 15 26  1  0  0  0  0
 15 27  1  0  0  0  0
M  END
>  <EXTREG>  (Row47_000)
Row47_000

>  <Similarity>  (Row47_000)
7.7072

>  <RMSD_ISO>  (Row47_000)
0.0000

>  <STRAIN>  (Row47_000)
0.0000

>  <ID>  (Row47_000)
M047

>  <IC50>  (Row47_000)
11250.0000

>  <pIC50>  (Row47_000)
4.9488

$$$$
Row48_000
  -MTS-   08231913523D 0   0.00000     0.00000     0

 35 36  0  0  0  0  0  0  0  0999 V2000
    1.9810   18.0890   -6.1710 O   0  0  0  0  0  0  0  0  0  0  0  0
    2.6830   18.7390   -5.2820 N   0  0  0  0  0  0  0  0  0  0  0  0
    2.1350   19.4120   -4.2850 C   0  0  0  0  0  0  0  0  0  0  0  0
    0.9160   19.4410   -4.1710 O   0  0  0  0  0  0  0  0  0  0  0  0
    3.0110   20.1030   -3.3520 C   0  0  0  0  0  0  0  0  0  0  0  0
    3.4810   21.5120   -3.8050 C   0  0  0  0  0  0  0  0  0  0  0  0
    4.0780   22.3070   -2.7130 C   0  0  0  0  0  0  0  0  0  0  0  0
    5.3800   22.2080   -2.2270 C   0  0  0  0  0  0  0  0  0  0  0  0
    5.5380   23.2080   -1.2790 C   0  0  0  0  0  0  0  0  0  0  0  0
    4.3270   23.8900   -1.1980 C   0  0  0  0  0  0  0  0  0  0  0  0
    4.0320   25.0690   -0.3510 C   0  0  0  0  0  0  0  0  0  0  0  0
    2.7060   25.1120    0.2650 C   0  0  0  0  0  0  0  0  0  0  0  0
    1.7420   25.3110   -0.4710 O   0  0  0  0  0  0  0  0  0  0  0  0
    2.4780   24.9290    1.6460 C   0  0  0  0  0  0  0  0  0  0  0  0
    3.0580   23.8310    2.3440 C   0  0  0  0  0  0  0  0  0  0  0  0
    2.8410   23.6310    3.7220 C   0  0  0  0  0  0  0  0  0  0  0  0
    2.0360   24.5230    4.4420 C   0  0  0  0  0  0  0  0  0  0  0  0
    1.4450   25.6160    3.7860 C   0  0  0  0  0  0  0  0  0  0  0  0
    1.6650   25.8140    2.4100 C   0  0  0  0  0  0  0  0  0  0  0  0
    3.4600   23.3380   -2.0810 O   0  0  0  0  0  0  0  0  0  0  0  0
    2.2940   17.1610   -6.1080 H   0  0  0  0  0  0  0  0  0  0  0  0
    3.6510   18.7270   -5.3560 H   0  0  0  0  0  0  0  0  0  0  0  0
    2.4860   20.2040   -2.3990 H   0  0  0  0  0  0  0  0  0  0  0  0
    3.8940   19.4770   -3.1870 H   0  0  0  0  0  0  0  0  0  0  0  0
    4.2130   21.4110   -4.6110 H   0  0  0  0  0  0  0  0  0  0  0  0
    2.6240   22.0650   -4.1960 H   0  0  0  0  0  0  0  0  0  0  0  0
    6.0960   21.5450   -2.5320 H   0  0  0  0  0  0  0  0  0  0  0  0
    6.3930   23.4160   -0.7560 H   0  0  0  0  0  0  0  0  0  0  0  0
    4.1670   25.9630   -0.9670 H   0  0  0  0  0  0  0  0  0  0  0  0
    4.7830   25.0920    0.4420 H   0  0  0  0  0  0  0  0  0  0  0  0
    3.6530   23.1540    1.8550 H   0  0  0  0  0  0  0  0  0  0  0  0
    3.2720   22.8320    4.1940 H   0  0  0  0  0  0  0  0  0  0  0  0
    1.8770   24.3780    5.4420 H   0  0  0  0  0  0  0  0  0  0  0  0
    0.8560   26.2660    4.3100 H   0  0  0  0  0  0  0  0  0  0  0  0
    1.2140   26.6250    1.9760 H   0  0  0  0  0  0  0  0  0  0  0  0
  1 21  1  0  0  0  0
  1  2  1  0  0  0  0
  2 22  1  0  0  0  0
  2  3  1  0  0  0  0
  3  4  2  0  0  0  0
  3  5  1  0  0  0  0
  5 23  1  0  0  0  0
  5 24  1  0  0  0  0
  5  6  1  0  0  0  0
  6 25  1  0  0  0  0
  6 26  1  0  0  0  0
  6  7  1  0  0  0  0
  7  8  2  0  0  0  0
  8 27  1  0  0  0  0
  8  9  1  0  0  0  0
  9 28  1  0  0  0  0
  9 10  2  0  0  0  0
 10 11  1  0  0  0  0
 11 29  1  0  0  0  0
 11 30  1  0  0  0  0
 11 12  1  0  0  0  0
 12 13  2  0  0  0  0
 12 14  1  0  0  0  0
 14 15  2  0  0  0  0
 15 31  1  0  0  0  0
 15 16  1  0  0  0  0
 16 32  1  0  0  0  0
 16 17  2  0  0  0  0
 17 33  1  0  0  0  0
 17 18  1  0  0  0  0
 18 34  1  0  0  0  0
 18 19  2  0  0  0  0
 19 14  1  0  0  0  0
 19 35  1  0  0  0  0
 10 20  1  0  0  0  0
 20  7  1  0  0  0  0
M  END
>  <EXTREG>  (Row48_000)
Row48_000

>  <Similarity>  (Row48_000)
8.2502

>  <RMSD_ISO>  (Row48_000)
0.0000

>  <STRAIN>  (Row48_000)
0.0000

>  <ID>  (Row48_000)
M048

>  <IC50>  (Row48_000)
2400.0000

>  <pIC50>  (Row48_000)
5.6198

$$$$
Row49_000
  -MTS-   08231913523D 0   0.00000     0.00000     0

 37 38  0  0  0  0  0  0  0  0999 V2000
    2.5330   18.0860   -6.4980 O   0  0  0  0  0  0  0  0  0  0  0  0
    2.7540   18.6930   -5.3650 N   0  0  0  0  0  0  0  0  0  0  0  0
    1.8050   19.2930   -4.6640 C   0  0  0  0  0  0  0  0  0  0  0  0
    0.6580   19.2870   -5.0990 O   0  0  0  0  0  0  0  0  0  0  0  0
    2.1310   19.9200   -3.5010 C   0  0  0  0  0  0  0  0  0  0  0  0
    2.7360   21.1250   -3.4080 C   0  0  0  0  0  0  0  0  0  0  0  0
    3.1190   21.7930   -2.2330 C   0  0  0  0  0  0  0  0  0  0  0  0
    2.4110   22.9660   -1.8570 C   0  0  0  0  0  0  0  0  0  0  0  0
    2.7610   23.7030   -0.7100 C   0  0  0  0  0  0  0  0  0  0  0  0
    3.8310   23.2820    0.1020 C   0  0  0  0  0  0  0  0  0  0  0  0
    4.5210   22.1000   -0.2280 C   0  0  0  0  0  0  0  0  0  0  0  0
    4.1690   21.3680   -1.3760 C   0  0  0  0  0  0  0  0  0  0  0  0
    4.2010   23.9990    1.1940 N   0  0  0  0  0  0  0  0  0  0  0  0
    3.4060   24.2800    2.2150 C   0  0  0  0  0  0  0  0  0  0  0  0
    2.2460   23.8790    2.2520 O   0  0  0  0  0  0  0  0  0  0  0  0
    3.9100   25.0260    3.1870 N   0  0  0  0  0  0  0  0  0  0  0  0
    3.2340   25.3970    4.3070 C   0  0  0  0  0  0  0  0  0  0  0  0
    2.4020   26.5380    4.2910 C   0  0  0  0  0  0  0  0  0  0  0  0
    1.6930   26.9170    5.4480 C   0  0  0  0  0  0  0  0  0  0  0  0
    1.8180   26.1580    6.6290 C   0  0  0  0  0  0  0  0  0  0  0  0
    2.6580   25.0260    6.6550 C   0  0  0  0  0  0  0  0  0  0  0  0
    3.3650   24.6490    5.4970 C   0  0  0  0  0  0  0  0  0  0  0  0
    0.9570   26.6040    8.0170 Cl  0  0  0  0  0  0  0  0  0  0  0  0
    3.0930   18.5680   -7.1430 H   0  0  0  0  0  0  0  0  0  0  0  0
    3.6610   18.7010   -5.0170 H   0  0  0  0  0  0  0  0  0  0  0  0
    1.9110   19.4370   -2.6640 H   0  0  0  0  0  0  0  0  0  0  0  0
    2.9600   21.5740   -4.2700 H   0  0  0  0  0  0  0  0  0  0  0  0
    1.6340   23.3100   -2.4260 H   0  0  0  0  0  0  0  0  0  0  0  0
    2.2380   24.5490   -0.4740 H   0  0  0  0  0  0  0  0  0  0  0  0
    5.2900   21.7720    0.3630 H   0  0  0  0  0  0  0  0  0  0  0  0
    4.7010   20.5210   -1.5680 H   0  0  0  0  0  0  0  0  0  0  0  0
    5.1020   24.3650    1.2130 H   0  0  0  0  0  0  0  0  0  0  0  0
    4.8270   25.3310    3.0950 H   0  0  0  0  0  0  0  0  0  0  0  0
    2.3030   27.0920    3.4370 H   0  0  0  0  0  0  0  0  0  0  0  0
    1.0840   27.7370    5.4200 H   0  0  0  0  0  0  0  0  0  0  0  0
    2.7530   24.4710    7.5090 H   0  0  0  0  0  0  0  0  0  0  0  0
    3.9710   23.8290    5.5220 H   0  0  0  0  0  0  0  0  0  0  0  0
  1 24  1  0  0  0  0
  1  2  1  0  0  0  0
  2 25  1  0  0  0  0
  2  3  1  0  0  0  0
  3  4  2  0  0  0  0
  3  5  1  0  0  0  0
  5 26  1  0  0  0  0
  5  6  2  0  0  0  0
  6 27  1  0  0  0  0
  6  7  1  0  0  0  0
  7  8  2  0  0  0  0
  8 28  1  0  0  0  0
  8  9  1  0  0  0  0
  9 29  1  0  0  0  0
  9 10  2  0  0  0  0
 10 11  1  0  0  0  0
 11 30  1  0  0  0  0
 11 12  2  0  0  0  0
 12  7  1  0  0  0  0
 12 31  1  0  0  0  0
 10 13  1  0  0  0  0
 13 32  1  0  0  0  0
 13 14  1  0  0  0  0
 14 15  2  0  0  0  0
 14 16  1  0  0  0  0
 16 33  1  0  0  0  0
 16 17  1  0  0  0  0
 17 18  2  0  0  0  0
 18 34  1  0  0  0  0
 18 19  1  0  0  0  0
 19 35  1  0  0  0  0
 19 20  2  0  0  0  0
 20 21  1  0  0  0  0
 21 36  1  0  0  0  0
 21 22  2  0  0  0  0
 22 17  1  0  0  0  0
 22 37  1  0  0  0  0
 20 23  1  0  0  0  0
M  END
>  <EXTREG>  (Row49_000)
Row49_000

>  <Similarity>  (Row49_000)
6.4993

>  <RMSD_ISO>  (Row49_000)
0.0000

>  <STRAIN>  (Row49_000)
0.0000

>  <ID>  (Row49_000)
M049

>  <IC50>  (Row49_000)
840.0000

>  <pIC50>  (Row49_000)
6.0757

$$$$
Row50_000
  -MTS-   08231913523D 0   0.00000     0.00000     0

 39 40  0  0  0  0  0  0  0  0999 V2000
    1.8550   17.1300   -6.1890 O   0  0  0  0  0  0  0  0  0  0  0  0
    2.4260   18.1770   -5.6510 N   0  0  0  0  0  0  0  0  0  0  0  0
    1.7500   19.1460   -5.0530 C   0  0  0  0  0  0  0  0  0  0  0  0
    0.5300   19.0370   -5.0180 O   0  0  0  0  0  0  0  0  0  0  0  0
    2.3740   20.2690   -4.4830 C   0  0  0  0  0  0  0  0  0  0  0  0
    3.7870   20.4190   -4.5140 C   0  0  0  0  0  0  0  0  0  0  0  0
    4.4180   21.5380   -3.9370 C   0  0  0  0  0  0  0  0  0  0  0  0
    3.6620   22.5440   -3.3030 C   0  0  0  0  0  0  0  0  0  0  0  0
    2.2580   22.4150   -3.2770 C   0  0  0  0  0  0  0  0  0  0  0  0
    1.6290   21.2980   -3.8540 C   0  0  0  0  0  0  0  0  0  0  0  0
    4.3280   23.7340   -2.7100 C   0  0  0  0  0  0  0  0  0  0  0  0
    4.8460   23.4320   -1.2820 C   0  0  0  0  0  0  0  0  0  0  0  0
    3.7010   23.3580   -0.2440 C   0  0  0  0  0  0  0  0  0  0  0  0
    3.1670   25.0030    0.2820 S   0  0  0  0  0  0  0  0  0  0  0  0
    1.8310   25.3950   -0.4800 O   0  0  0  0  0  0  0  0  0  0  0  0
    4.2890   26.0680   -0.0790 O   0  0  0  0  0  0  0  0  0  0  0  0
    2.8980   24.9660    2.0050 C   0  0  0  0  0  0  0  0  0  0  0  0
    3.8100   24.3030    2.8530 C   0  0  0  0  0  0  0  0  0  0  0  0
    3.5870   24.2670    4.2400 C   0  0  0  0  0  0  0  0  0  0  0  0
    2.4490   24.8870    4.7890 C   0  0  0  0  0  0  0  0  0  0  0  0
    1.5310   25.5390    3.9460 C   0  0  0  0  0  0  0  0  0  0  0  0
    1.7520   25.5760    2.5570 C   0  0  0  0  0  0  0  0  0  0  0  0
    2.0100   16.4100   -5.5420 H   0  0  0  0  0  0  0  0  0  0  0  0
    3.3930   18.2330   -5.6980 H   0  0  0  0  0  0  0  0  0  0  0  0
    4.3820   19.7110   -4.9540 H   0  0  0  0  0  0  0  0  0  0  0  0
    5.4410   21.6130   -3.9840 H   0  0  0  0  0  0  0  0  0  0  0  0
    1.6810   23.1370   -2.8360 H   0  0  0  0  0  0  0  0  0  0  0  0
    0.6120   21.2500   -3.8000 H   0  0  0  0  0  0  0  0  0  0  0  0
    3.6240   24.5710   -2.6690 H   0  0  0  0  0  0  0  0  0  0  0  0
    5.1600   24.0530   -3.3430 H   0  0  0  0  0  0  0  0  0  0  0  0
    5.5460   24.2160   -0.9780 H   0  0  0  0  0  0  0  0  0  0  0  0
    5.3770   22.4770   -1.2880 H   0  0  0  0  0  0  0  0  0  0  0  0
    4.0370   22.8080    0.6400 H   0  0  0  0  0  0  0  0  0  0  0  0
    2.8410   22.8410   -0.6730 H   0  0  0  0  0  0  0  0  0  0  0  0
    4.6340   23.8420    2.4660 H   0  0  0  0  0  0  0  0  0  0  0  0
    4.2530   23.7910    4.8520 H   0  0  0  0  0  0  0  0  0  0  0  0
    2.2860   24.8600    5.7970 H   0  0  0  0  0  0  0  0  0  0  0  0
    0.7000   25.9900    4.3420 H   0  0  0  0  0  0  0  0  0  0  0  0
    1.0720   26.0470    1.9540 H   0  0  0  0  0  0  0  0  0  0  0  0
  1 23  1  0  0  0  0
  1  2  1  0  0  0  0
  2 24  1  0  0  0  0
  2  3  1  0  0  0  0
  3  4  2  0  0  0  0
  3  5  1  0  0  0  0
  5  6  2  0  0  0  0
  6 25  1  0  0  0  0
  6  7  1  0  0  0  0
  7 26  1  0  0  0  0
  7  8  2  0  0  0  0
  8  9  1  0  0  0  0
  9 27  1  0  0  0  0
  9 10  2  0  0  0  0
 10  5  1  0  0  0  0
 10 28  1  0  0  0  0
  8 11  1  0  0  0  0
 11 29  1  0  0  0  0
 11 30  1  0  0  0  0
 11 12  1  0  0  0  0
 12 31  1  0  0  0  0
 12 32  1  0  0  0  0
 12 13  1  0  0  0  0
 13 33  1  0  0  0  0
 13 34  1  0  0  0  0
 13 14  1  0  0  0  0
 14 15  2  0  0  0  0
 14 16  2  0  0  0  0
 14 17  1  0  0  0  0
 17 18  2  0  0  0  0
 18 35  1  0  0  0  0
 18 19  1  0  0  0  0
 19 36  1  0  0  0  0
 19 20  2  0  0  0  0
 20 37  1  0  0  0  0
 20 21  1  0  0  0  0
 21 38  1  0  0  0  0
 21 22  2  0  0  0  0
 22 17  1  0  0  0  0
 22 39  1  0  0  0  0
M  END
>  <EXTREG>  (Row50_000)
Row50_000

>  <Similarity>  (Row50_000)
7.8319

>  <RMSD_ISO>  (Row50_000)
0.0000

>  <STRAIN>  (Row50_000)
0.0000

>  <ID>  (Row50_000)
M050

>  <IC50>  (Row50_000)
2000.0000

>  <pIC50>  (Row50_000)
5.6990

$$$$
Row51_000
  -MTS-   08231913523D 0   0.00000     0.00000     0

 33 34  0  0  0  0  0  0  0  0999 V2000
    1.9860   17.8870   -6.1610 O   0  0  0  0  0  0  0  0  0  0  0  0
    2.5650   18.8110   -5.4410 N   0  0  0  0  0  0  0  0  0  0  0  0
    1.9130   19.5840   -4.5860 C   0  0  0  0  0  0  0  0  0  0  0  0
    0.7030   19.4040   -4.4830 O   0  0  0  0  0  0  0  0  0  0  0  0
    2.5450   20.5750   -3.8210 C   0  0  0  0  0  0  0  0  0  0  0  0
    3.9430   20.8000   -3.9310 C   0  0  0  0  0  0  0  0  0  0  0  0
    4.5940   21.7880   -3.1680 C   0  0  0  0  0  0  0  0  0  0  0  0
    3.8670   22.5840   -2.2610 C   0  0  0  0  0  0  0  0  0  0  0  0
    2.4760   22.3860   -2.1480 C   0  0  0  0  0  0  0  0  0  0  0  0
    1.8260   21.3980   -2.9110 C   0  0  0  0  0  0  0  0  0  0  0  0
    4.5420   23.6490   -1.4740 C   0  0  0  0  0  0  0  0  0  0  0  0
    4.7810   23.2010   -0.0090 C   0  0  0  0  0  0  0  0  0  0  0  0
    3.5500   23.3460    0.8080 C   0  0  0  0  0  0  0  0  0  0  0  0
    2.8390   22.2030    1.2430 C   0  0  0  0  0  0  0  0  0  0  0  0
    1.6570   22.3410    1.9940 C   0  0  0  0  0  0  0  0  0  0  0  0
    1.1680   23.6210    2.3130 C   0  0  0  0  0  0  0  0  0  0  0  0
    1.8610   24.7640    1.8750 C   0  0  0  0  0  0  0  0  0  0  0  0
    3.0430   24.6290    1.1230 C   0  0  0  0  0  0  0  0  0  0  0  0
    2.2500   17.0490   -5.7330 H   0  0  0  0  0  0  0  0  0  0  0  0
    3.5200   18.9230   -5.5510 H   0  0  0  0  0  0  0  0  0  0  0  0
    4.5130   20.2440   -4.5750 H   0  0  0  0  0  0  0  0  0  0  0  0
    5.6030   21.9230   -3.2860 H   0  0  0  0  0  0  0  0  0  0  0  0
    1.9220   22.9670   -1.5110 H   0  0  0  0  0  0  0  0  0  0  0  0
    0.8170   21.2930   -2.7920 H   0  0  0  0  0  0  0  0  0  0  0  0
    3.9380   24.5610   -1.4860 H   0  0  0  0  0  0  0  0  0  0  0  0
    5.5000   23.9010   -1.9400 H   0  0  0  0  0  0  0  0  0  0  0  0
    5.5890   23.7950    0.4310 H   0  0  0  0  0  0  0  0  0  0  0  0
    5.1160   22.1590    0.0070 H   0  0  0  0  0  0  0  0  0  0  0  0
    3.1740   21.2640    1.0100 H   0  0  0  0  0  0  0  0  0  0  0  0
    1.1490   21.5080    2.3050 H   0  0  0  0  0  0  0  0  0  0  0  0
    0.3110   23.7200    2.8570 H   0  0  0  0  0  0  0  0  0  0  0  0
    1.5020   25.6970    2.0990 H   0  0  0  0  0  0  0  0  0  0  0  0
    3.5290   25.4710    0.8030 H   0  0  0  0  0  0  0  0  0  0  0  0
  1 19  1  0  0  0  0
  1  2  1  0  0  0  0
  2 20  1  0  0  0  0
  2  3  1  0  0  0  0
  3  4  2  0  0  0  0
  3  5  1  0  0  0  0
  5  6  2  0  0  0  0
  6 21  1  0  0  0  0
  6  7  1  0  0  0  0
  7 22  1  0  0  0  0
  7  8  2  0  0  0  0
  8  9  1  0  0  0  0
  9 23  1  0  0  0  0
  9 10  2  0  0  0  0
 10  5  1  0  0  0  0
 10 24  1  0  0  0  0
  8 11  1  0  0  0  0
 11 25  1  0  0  0  0
 11 26  1  0  0  0  0
 11 12  1  0  0  0  0
 12 27  1  0  0  0  0
 12 28  1  0  0  0  0
 12 13  1  0  0  0  0
 13 14  2  0  0  0  0
 14 29  1  0  0  0  0
 14 15  1  0  0  0  0
 15 30  1  0  0  0  0
 15 16  2  0  0  0  0
 16 31  1  0  0  0  0
 16 17  1  0  0  0  0
 17 32  1  0  0  0  0
 17 18  2  0  0  0  0
 18 13  1  0  0  0  0
 18 33  1  0  0  0  0
M  END
>  <EXTREG>  (Row51_000)
Row51_000

>  <Similarity>  (Row51_000)
7.0921

>  <RMSD_ISO>  (Row51_000)
0.0000

>  <STRAIN>  (Row51_000)
0.0000

>  <ID>  (Row51_000)
M051

>  <IC50>  (Row51_000)
1000.0000

>  <pIC50>  (Row51_000)
6.0000

$$$$
